FoamFile
{
    version     2.0;
    format      ascii;
    class       volScalarField;
    object      alpha_a;
}

dimensions  [0 0 0 0 0 0 0];

internalField  #codeStream
{
    codeInclude
    #{
        #include "fvCFD.H"
    #};
    codeOptions
    #{
        -I$(LIB_SRC)/finiteVolume/lnInclude \
        -I$(LIB_SRC)/meshTools/lnInclude
    #};
    codeLibs
    #{
        -lmeshTools \
        -lfiniteVolume
    #};
    code
    #{
        const IOdictionary& d = static_cast<const IOdictionary&>(dict);
        const fvMesh& mesh = refCast<const fvMesh>(d.db());
        scalarField alpha_a(mesh.nCells(), 0);
        forAll(mesh.C(), i)
        {
            scalar y = mesh.C()[i].y();
            alpha_a[i] = 0.305*(1.0+tanh((12.5*0.006-y)/0.005));
        /*if (y < 12.5*0.006)
        {
        alpha_a[i] = 0.61;
        }
        else
        {
        alpha_a[i] = 0;
        }*/
        }
        alpha_a.writeEntry("", os);
    #};
};

boundaryField
{
    inlet
    {
        type    cyclic;
    }
    outlet
    {
        type    cyclic;
    }
    top
    {
        type     fixedValue;
        value    uniform 0;
    }
    bottom
    {
        type    zeroGradient;
    }
    frontAndBackPlanes
    {
        type    empty;
    }
}
