FoamFile
{
    version     2.0;
    format      ascii;
    class       dictionary;
    location    "constant";
    object      forceProperties;
}

// mean pressure
gradPMEAN    gradPMEAN [1 -2 -2 0 0 0 0] (490.5 0 0);

// To impose same gravity term to both phases
tilt         tilt [0 0 0 0 0 0 0] 1;

// Virtual/Added Mass coefficient
Cvm          Cvm [0 0 0 0 0 0 0] 0;

// Lift force coefficient
Cl           Cl [0 0 0 0 0 0 0] 0;

// Eddy diffusivity coefficient for phase a
Ct           Ct [0 0 0 0 0 0 0] 0;

debugInfo    true;

writeTau     true;
