FoamFile
{
    version     2.0;
    format      ascii;
    class       dictionary;
    location    "constant";
    object      twophaseRASProperties;
}

// Shared coefficients
SUS        SUS [0 0 0 0 0 0 0] 0;

// density stra (Uf-Us)
KE1        KE1 [0 0 0 0 0 0 0] 0;

// turb generation
KE3        KE3 [0 0 0 0 0 0 0] 0;

// turb modulation coeff
B          B [0 0 0 0 0 0 0] 0.15;

// Limiters
Tpsmall    Tpsmall [1 -3 -1 0 0 0 0] 1e-06;
