/*--------------------------------*- C++ -*----------------------------------*\
| =========                 |                                                 |
| \\      /  F ield         | OpenFOAM: The Open Source CFD Toolbox           |
|  \\    /   O peration     | Version:  v2206                                 |
|   \\  /    A nd           | Website:  www.openfoam.com                      |
|    \\/     M anipulation  |                                                 |
\*---------------------------------------------------------------------------*/
FoamFile
{
    version     2.0;
    format      ascii;
    class       dictionary;
    object      blockMeshDict;
}
// * * * * * * * * * * * * * * * * * * * * * * * * * * * * * * * * * * * * * //

scale   0.1;

vertices
(
    (  0  0  0 )  // 0 left_bot
    (  1  0  0 )  // 1 right_bot
    (  1  1  0 )  // 2 right_up
    (  0  1  0 )  // 3 left_up
    (  0  0  1 )  // 4 left_bot_dz
    (  1  0  1 )  // 5 right_bot_dz
    (  1  1  1 )  // 6 right_up_dz
    (  0  1  1 )  // 7 left_up_dz
);

blocks
(
    // main (left_bot right_bot right_up left_up left_bot_dz right_bot_dz right_up_dz left_up_dz)
    hex (0 1 2 3 4 5 6 7) main (20 20 20) simpleGrading (1 1 1)
);

edges
(
    spline 0 1                      // spline-z0 (left_bot right_bot)
    (
         (                  0               0.08                  0 )
         ( 0.0526315789473684 0.0778326896680254                  0 )
         (  0.105263157894737 0.0715656203758557                  0 )
         (  0.157894736842105 0.0618779263248971                  0 )
         (  0.210526315789474  0.049819419485632                  0 )
         (  0.263157894736842 0.0366968261811067                  0 )
         (  0.315789473684211 0.0239321830138812                  0 )
         (  0.368421052631579 0.0129087371349704                  0 )
         (  0.421052631578947 0.00482104995174044                  0 )
         (  0.473684210526316 0.000545547863891107                  0 )
         (  0.526315789473684 0.000545547863891103                  0 )
         (  0.578947368421053 0.00482104995174044                  0 )
         (  0.631578947368421 0.0129087371349704                  0 )
         (  0.684210526315789 0.0239321830138812                  0 )
         (  0.736842105263158 0.0366968261811067                  0 )
         (  0.789473684210526  0.049819419485632                  0 )
         (  0.842105263157895 0.0618779263248971                  0 )
         (  0.894736842105263 0.0715656203758557                  0 )
         (  0.947368421052632 0.0778326896680254                  0 )
         (                  1               0.08                  0 )
)
    spline 4 5                      // spline-z (left_bot_dz right_bot_dz)
    (
         (                  0               0.08                  1 )
         ( 0.0526315789473684 0.0778326896680254                  1 )
         (  0.105263157894737 0.0715656203758557                  1 )
         (  0.157894736842105 0.0618779263248971                  1 )
         (  0.210526315789474  0.049819419485632                  1 )
         (  0.263157894736842 0.0366968261811067                  1 )
         (  0.315789473684211 0.0239321830138812                  1 )
         (  0.368421052631579 0.0129087371349704                  1 )
         (  0.421052631578947 0.00482104995174044                  1 )
         (  0.473684210526316 0.000545547863891107                  1 )
         (  0.526315789473684 0.000545547863891103                  1 )
         (  0.578947368421053 0.00482104995174044                  1 )
         (  0.631578947368421 0.0129087371349704                  1 )
         (  0.684210526315789 0.0239321830138812                  1 )
         (  0.736842105263158 0.0366968261811067                  1 )
         (  0.789473684210526  0.049819419485632                  1 )
         (  0.842105263157895 0.0618779263248971                  1 )
         (  0.894736842105263 0.0715656203758557                  1 )
         (  0.947368421052632 0.0778326896680254                  1 )
         (                  1               0.08                  1 )
)
);

boundary
(
    movingWall
    {
        type wall;
        faces
        (
            (2 3 7 6)  // f-main-n (right_up left_up left_up_dz right_up_dz)
        );
    }
    fixedWalls
    {
        type wall;
        faces
        (
            (0 4 7 3)  // f-main-w (left_bot left_bot_dz left_up_dz left_up)
            (1 2 6 5)  // f-main-e (right_bot right_up right_up_dz right_bot_dz)
            (0 1 5 4)  // f-main-s (left_bot right_bot right_bot_dz left_bot_dz)
        );
    }
    frontAndBack
    {
        type wall;
        faces
        (
            (0 3 2 1)  // f-main-b (left_bot left_up right_up right_bot)
            (4 5 6 7)  // f-main-t (left_bot_dz right_bot_dz right_up_dz left_up_dz)
        );
    }
);

// ************************************************************************* //
