FoamFile
{
    version     2.0;
    format      ascii;
    class       dictionary;
    object      fvSchemes;
}

ddtSchemes
{
    default    backward;
}

gradSchemes
{
    default    leastSquares;
}

divSchemes
{
    default                 none;
    div(phi,U)              Gauss linear;
    div((nuEff*dev2(T(grad(U)))))  Gauss linear;
}

laplacianSchemes
{
    default    Gauss linear corrected;
}

interpolationSchemes
{
    default    linear;
}

snGradSchemes
{
    default    corrected;
}
