/*--------------------------------*- C++ -*----------------------------------*\
| =========                 |                                                 |
| \\      /  F ield         | OpenFOAM: The Open Source CFD Toolbox           |
|  \\    /   O peration     | Version:  v2206                                 |
|   \\  /    A nd           | Website:  www.openfoam.com                      |
|    \\/     M anipulation  |                                                 |
\*---------------------------------------------------------------------------*/
FoamFile
{
    version     2.0;
    format      ascii;
    class       dictionary;
    object      blockMeshDict;
}
// * * * * * * * * * * * * * * * * * * * * * * * * * * * * * * * * * * * * * //

scale   1;

vertices
(
    (  0.189819162100553 -0.00828768359941384                  0 )  // 0 v1-y
    (                  0                  0                  0 )  // 1 v0-y : v0+y v0-y
    (  0.189819162100553 0.00828768359941384                  0 )  // 2 v1+y
    (  0.189819162100553 -0.00828768359941384                1.1 )  // 3 v2-y
    (                  0                  0                1.1 )  // 4 v3-y : v3+y v3-y
    (  0.189819162100553 0.00828768359941384                1.1 )  // 5 v2+y
);

blocks
(
    hex (1 0 2 1 4 3 5 4) b0 (19 1 300) simpleGrading (0.1 ( ( 0.2 0.3 4 ) ( 0.6 0.4 1 ) ( 0.2 0.3 0.25 ) ) 1)  // b0 (v0-y v1-y v1+y v0+y v3-y v2-y v2+y v3+y)
);

edges
(
);

boundary
(
    front
    {
        type wedge;
        faces
        (
            (1 0 3 4)  // f-b0-s (v0-y v1-y v2-y v3-y)
        );
    }
    back
    {
        type wedge;
        faces
        (
            (2 1 4 5)  // f-b0-n (v1+y v0+y v3+y v2+y)
        );
    }
    tankWall
    {
        type wall;
        faces
        (
            (0 2 5 3)  // f-b0-n (v1-y v1+y v2+y v2-y)
        );
    }
    inlet
    {
        type patch;
        faces
        (
            (1 1 2 0)  // f-b0-b (v0-y v0+y v1+y v1-y)
        );
    }
    outlet
    {
        type patch;
        faces
        (
            (4 3 5 4)  // f-b0-t (v3-y v2-y v2+y v3+y)
        );
    }
    axis
    {
        type empty;
        faces
        (
            (1 4 4 1)  // f-b0-w (v0-y v3-y v3+y v0+y)
        );
    }
);

mergePatchPairs
(

);

// ************************************************************************* //
