/*--------------------------------*- C++ -*----------------------------------*\
| =========                 |                                                 |
| \\      /  F ield         | OpenFOAM: The Open Source CFD Toolbox           |
|  \\    /   O peration     | Version:  v2206                                 |
|   \\  /    A nd           | Website:  www.openfoam.com                      |
|    \\/     M anipulation  |                                                 |
\*---------------------------------------------------------------------------*/
FoamFile
{
    version     2.0;
    format      ascii;
    class       dictionary;
    object      blockMeshDict;
}
// * * * * * * * * * * * * * * * * * * * * * * * * * * * * * * * * * * * * * //

scale   1;

vertices
(
    (  0  80  0 )  // 0 v-bot-inlet
    (  2000  80  0 )  // 1 v-bot-outlet
    (  2000  2000  0 )  // 2 v-top-outlet
    (  2000  5000  0 )  // 3 v-sponge-outlet
    (  0  5000  0 )  // 4 v-sponge-inlet
    (  0  2000  0 )  // 5 v-top-inlet
    (  0  80  0.01 )  // 6 v-bot-inlet_dz
    (  2000  80  0.01 )  // 7 v-bot-outlet_dz
    (  2000  2000  0.01 )  // 8 v-top-outlet_dz
    (  2000  5000  0.01 )  // 9 v-sponge-outlet_dz
    (  0  5000  0.01 )  // 10 v-sponge-inlet_dz
    (  0  2000  0.01 )  // 11 v-top-inlet_dz
);

blocks
(
    hex (0 1 2 5 6 7 8 11) hill (11 7 1) simpleGrading (1 ( ( 0.1 0.25 41.9 ) ( 0.9 0.75 1 ) ) 1)  // hill (v-bot-inlet v-bot-outlet v-top-outlet v-top-inlet v-bot-inlet_dz v-bot-outlet_dz v-top-outlet_dz v-top-inlet_dz)
    hex (5 2 3 4 11 8 9 10) porosity (11 4 1) simpleGrading (1 1 1)  // porosity (v-top-inlet v-top-outlet v-sponge-outlet v-sponge-inlet v-top-inlet_dz v-top-outlet_dz v-sponge-outlet_dz v-sponge-inlet_dz)
);

edges
(
    spline 0 1                      // spline-z0 (v-bot-inlet v-bot-outlet)
    (
         (                  0                 80                  0 )
         (                200   72.3606797749979                  0 )
         (                400   52.3606797749979                  0 )
         (                600   27.6393202250021                  0 )
         (                800    7.6393202250021                  0 )
         (               1000                  0                  0 )
         (               1200    7.6393202250021                  0 )
         (               1400   27.6393202250021                  0 )
         (               1600   52.3606797749979                  0 )
         (               1800   72.3606797749979                  0 )
         (               2000                 80                  0 )
)
    spline 6 7                      // spline-z (v-bot-inlet_dz v-bot-outlet_dz)
    (
         (                  0                 80               0.01 )
         (                200   72.3606797749979               0.01 )
         (                400   52.3606797749979               0.01 )
         (                600   27.6393202250021               0.01 )
         (                800    7.6393202250021               0.01 )
         (               1000                  0               0.01 )
         (               1200    7.6393202250021               0.01 )
         (               1400   27.6393202250021               0.01 )
         (               1600   52.3606797749979               0.01 )
         (               1800   72.3606797749979               0.01 )
         (               2000                 80               0.01 )
)
);

boundary
(
    top
    {
        type wall;
        faces
        (
            (3 4 10 9)  // f-porosity-n (v-sponge-outlet v-sponge-inlet v-sponge-inlet_dz v-sponge-outlet_dz)
        );
    }
    bottom
    {
        type wall;
        faces
        (
            (0 1 7 6)  // f-hill-s (v-bot-inlet v-bot-outlet v-bot-outlet_dz v-bot-inlet_dz)
        );
    }
    outlet
    {
        type cyclic;
        neighbourPatch  inlet;
        faces
        (
            (1 2 8 7)  // f-hill-e (v-bot-outlet v-top-outlet v-top-outlet_dz v-bot-outlet_dz)
            (2 3 9 8)  // f-porosity-e (v-top-outlet v-sponge-outlet v-sponge-outlet_dz v-top-outlet_dz)
        );
    }
    inlet
    {
        type cyclic;
        neighbourPatch  outlet;
        faces
        (
            (0 6 11 5)  // f-hill-w (v-bot-inlet v-bot-inlet_dz v-top-inlet_dz v-top-inlet)
            (5 11 10 4)  // f-porosity-w (v-top-inlet v-top-inlet_dz v-sponge-inlet_dz v-sponge-inlet)
        );
    }
    frontandbackplanes
    {
        type empty;
        faces
        (
            (0 5 2 1)  // f-hill-b (v-bot-inlet v-top-inlet v-top-outlet v-bot-outlet)
            (5 4 3 2)  // f-porosity-b (v-top-inlet v-sponge-inlet v-sponge-outlet v-top-outlet)
            (6 7 8 11)  // f-hill-t (v-bot-inlet_dz v-bot-outlet_dz v-top-outlet_dz v-top-inlet_dz)
            (11 8 9 10)  // f-porosity-t (v-top-inlet_dz v-top-outlet_dz v-sponge-outlet_dz v-sponge-inlet_dz)
        );
    }
);

// ************************************************************************* //
