/*--------------------------------*- C++ -*----------------------------------*\
| =========                 |                                                 |
| \\      /  F ield         | OpenFOAM: The Open Source CFD Toolbox           |
|  \\    /   O peration     | Version:  v2206                                 |
|   \\  /    A nd           | Website:  www.openfoam.com                      |
|    \\/     M anipulation  |                                                 |
\*---------------------------------------------------------------------------*/
FoamFile
{
    version     2.0;
    format      ascii;
    class       dictionary;
    object      blockMeshDict;
}
// * * * * * * * * * * * * * * * * * * * * * * * * * * * * * * * * * * * * * //

scale   1;

vertices
(
    (  0  80  0 )  // 0 v0-0
    (  2000  80  0 )  // 1 v1-0
    (  2000  2000  0 )  // 2 v2-0
    (  2000  5000  0 )  // 3 v3-0
    (  0  5000  0 )  // 4 v4-0
    (  0  2000  0 )  // 5 v5-0
    (  0  80  0.01 )  // 6 v0+z
    (  2000  80  0.01 )  // 7 v1+z
    (  2000  2000  0.01 )  // 8 v2+z
    (  2000  5000  0.01 )  // 9 v3+z
    (  0  5000  0.01 )  // 10 v4+z
    (  0  2000  0.01 )  // 11 v5+z
);

blocks
(
    hex (0 1 2 5 6 7 8 11) b0 (11 7 1) simpleGrading (1 ( ( 0.1 0.25 41.9 ) ( 0.9 0.75 1 ) ) 1)  // b0 (v0-0 v1-0 v2-0 v5-0 v0+z v1+z v2+z v5+z)
    hex (5 2 3 4 11 8 9 10) porosity (11 4 1) simpleGrading (1 1 1)  // porosity (v5-0 v2-0 v3-0 v4-0 v5+z v2+z v3+z v4+z)
);

edges
(
    spline 0 1                      // spline0 (v0-0 v1-0)
    (
         (                  0                 80                  0 )
         (                200   72.3606797749979                  0 )
         (                400   52.3606797749979                  0 )
         (                600   27.6393202250021                  0 )
         (                800    7.6393202250021                  0 )
         (               1000                  0                  0 )
         (               1200    7.6393202250021                  0 )
         (               1400   27.6393202250021                  0 )
         (               1600   52.3606797749979                  0 )
         (               1800   72.3606797749979                  0 )
         (               2000                 80                  0 )
)
    spline 6 7                      // spline1 (v0+z v1+z)
    (
         (                  0                 80               0.01 )
         (                200   72.3606797749979               0.01 )
         (                400   52.3606797749979               0.01 )
         (                600   27.6393202250021               0.01 )
         (                800    7.6393202250021               0.01 )
         (               1000                  0               0.01 )
         (               1200    7.6393202250021               0.01 )
         (               1400   27.6393202250021               0.01 )
         (               1600   52.3606797749979               0.01 )
         (               1800   72.3606797749979               0.01 )
         (               2000                 80               0.01 )
)
);

boundary
(
    top
    {
        type wall;
        faces
        (
            (3 4 10 9)  // f-porosity-n (v3-0 v4-0 v4+z v3+z)
        );
    }
    bottom
    {
        type wall;
        faces
        (
            (0 1 7 6)  // f-b0-s (v0-0 v1-0 v1+z v0+z)
        );
    }
    outlet
    {
        type cyclic;
        neighbourPatch  inlet;
        faces
        (
            (1 2 8 7)  // f-b0-e (v1-0 v2-0 v2+z v1+z)
            (2 3 9 8)  // f-porosity-e (v2-0 v3-0 v3+z v2+z)
        );
    }
    inlet
    {
        type cyclic;
        neighbourPatch  outlet;
        faces
        (
            (0 6 11 5)  // f-b0-w (v0-0 v0+z v5+z v5-0)
            (5 11 10 4)  // f-porosity-w (v5-0 v5+z v4+z v4-0)
        );
    }
    frontandbackplanes
    {
        type empty;
        faces
        (
            (0 5 2 1)  // f-b0-b (v0-0 v5-0 v2-0 v1-0)
            (5 4 3 2)  // f-porosity-b (v5-0 v4-0 v3-0 v2-0)
            (6 7 8 11)  // f-b0-t (v0+z v1+z v2+z v5+z)
            (11 8 9 10)  // f-porosity-t (v5+z v2+z v3+z v4+z)
        );
    }
);

mergePatchPairs
(
);

// ************************************************************************* //
