/*--------------------------------*- C++ -*----------------------------------*\
| =========                 |                                                 |
| \\      /  F ield         | OpenFOAM: The Open Source CFD Toolbox           |
|  \\    /   O peration     | Version:  v2206                                 |
|   \\  /    A nd           | Website:  www.openfoam.com                      |
|    \\/     M anipulation  |                                                 |
\*---------------------------------------------------------------------------*/
FoamFile
{
    version     2.0;
    format      ascii;
    class       dictionary;
    object      blockMeshDict;
}
// * * * * * * * * * * * * * * * * * * * * * * * * * * * * * * * * * * * * * //

scale   1;

vertices
(
    (  0  80  0 )  // 0 v0-0
    (  2000  80  0 )  // 1 v1-0
    (  2000  5000  0 )  // 2 v2-0
    (  0  5000  0 )  // 3 v3-0
    (  0  80  0.01 )  // 4 v0+z
    (  2000  80  0.01 )  // 5 v1+z
    (  2000  5000  0.01 )  // 6 v2+z
    (  0  5000  0.01 )  // 7 v3+z
);

blocks
(
    hex (0 1 2 3 4 5 6 7) b0 (21 50 1) simpleGrading (1 ( ( 0.1 0.25 41.9 ) ( 0.9 0.75 1 ) ) 1)  // b0 (v0-0 v1-0 v2-0 v3-0 v0+z v1+z v2+z v3+z)
);

edges
(
    spline 0 1                      // spline0 (v0-0 v1-0)
    (
         (                  0                 80                  0 )
         (                100   78.0422606518061                  0 )
         (                200   72.3606797749979                  0 )
         (                300   63.5114100916989                  0 )
         (                400   52.3606797749979                  0 )
         (                500                 40                  0 )
         (                600   27.6393202250021                  0 )
         (                700   16.4885899083011                  0 )
         (                800    7.6393202250021                  0 )
         (                900   1.95773934819386                  0 )
         (               1000                  0                  0 )
         (               1100   1.95773934819386                  0 )
         (               1200    7.6393202250021                  0 )
         (               1300   16.4885899083011                  0 )
         (               1400   27.6393202250021                  0 )
         (               1500                 40                  0 )
         (               1600   52.3606797749979                  0 )
         (               1700   63.5114100916989                  0 )
         (               1800   72.3606797749979                  0 )
         (               1900   78.0422606518061                  0 )
         (               2000                 80                  0 )
)
    spline 4 5                      // spline1 (v0+z v1+z)
    (
         (                  0                 80               0.01 )
         (                100   78.0422606518061               0.01 )
         (                200   72.3606797749979               0.01 )
         (                300   63.5114100916989               0.01 )
         (                400   52.3606797749979               0.01 )
         (                500                 40               0.01 )
         (                600   27.6393202250021               0.01 )
         (                700   16.4885899083011               0.01 )
         (                800    7.6393202250021               0.01 )
         (                900   1.95773934819386               0.01 )
         (               1000                  0               0.01 )
         (               1100   1.95773934819386               0.01 )
         (               1200    7.6393202250021               0.01 )
         (               1300   16.4885899083011               0.01 )
         (               1400   27.6393202250021               0.01 )
         (               1500                 40               0.01 )
         (               1600   52.3606797749979               0.01 )
         (               1700   63.5114100916989               0.01 )
         (               1800   72.3606797749979               0.01 )
         (               1900   78.0422606518061               0.01 )
         (               2000                 80               0.01 )
)
);

boundary
(
    top
    {
        type wall;
        faces
        (
            (2 3 7 6)  // f-b0-n (v2-0 v3-0 v3+z v2+z)
        );
    }
    bottom
    {
        type wall;
        faces
        (
            (0 1 5 4)  // f-b0-s (v0-0 v1-0 v1+z v0+z)
        );
    }
    outlet
    {
        type cyclic;
        neighbourPatch  inlet;
        faces
        (
            (1 2 6 5)  // f-b0-e (v1-0 v2-0 v2+z v1+z)
        );
    }
    inlet
    {
        type cyclic;
        neighbourPatch  outlet;
        faces
        (
            (0 4 7 3)  // f-b0-w (v0-0 v0+z v3+z v3-0)
        );
    }
    frontandbackplanes
    {
        type empty;
        faces
        (
            (0 3 2 1)  // f-b0-b (v0-0 v3-0 v2-0 v1-0)
            (4 5 6 7)  // f-b0-t (v0+z v1+z v2+z v3+z)
        );
    }
);

// ************************************************************************* //
