/*--------------------------------*- C++ -*----------------------------------*\
| =========                 |                                                 |
| \\      /  F ield         | OpenFOAM: The Open Source CFD Toolbox           |
|  \\    /   O peration     | Version:  v2206                                 |
|   \\  /    A nd           | Website:  www.openfoam.com                      |
|    \\/     M anipulation  |                                                 |
\*---------------------------------------------------------------------------*/
FoamFile
{
    version     2.0;
    format      ascii;
    class       dictionary;
    location    "system";
    object      controlDict;
}

application       buoyantBoussinesqPimpleFoam;

startFrom         latestTime;

startTime         0;

stopAt            endTime;

endTime           1200000;

deltaT            10;

writeControl      adjustableRunTime;

writeInterval     5000;

purgeWrite        0;

writeFormat       ascii;

writePrecision    6;

writeCompression  off;

timeFormat        general;

timePrecision     6;

runTimeModifiable  true;

adjustTimeStep    on;

maxCo             0.6;

maxAlphaCo        0.6;

maxDeltaT         1;
