FoamFile
{
    version     2.0;
    format      ascii;
    class       dictionary;
    location    "system";
    object      fvOptions;
}

momentumSource
{
    type             meanVelocityForce;
    active           no;
    selectionMode    all;
    meanVelocityForceCoeffs
    {
        fields    (U);
        Ubar      (0.1 0 0);
    }
}

atmCoriolisUSource
{
    type             atmCoriolisUSource;
    active           no;
    selectionMode    all;
    atmCoriolisUSourceCoeffs
    {
        Omega    (0 7.2921e-5 0);
    }
}

porosity
{
    type             explicitPorositySource;
    active           yes;
    selectionMode    cellZone;
    cellZone         porosity;
    explicitPorositySourceCoeffs
    {
        type    fixedCoeff;
        fixedCoeffCoeffs
        {
            alpha     (500 -1000 -1000);
            beta      (0 0 0);
            rhoRef    1;
            coordinateSystem
            {
                origin    (0 0 0);
                e1        (0.70710678 0.70710678 0);
                e2        (0 0 1);
            }
        }
    }
}
