FoamFile
{
    version     2.0;
    format      ascii;
    class       dictionary;
    object      fvSchemes;
}

ddtSchemes
{
    default    Euler implicit;
}

gradSchemes
{
    default    Gauss linear;
}

divSchemes
{
    default                 none;
    div(phi,U)              Gauss upwind;
    div(phi,T)              Gauss upwind;
    div(phi,rhok)           Gauss upwind;
    div(phi,R)              Gauss upwind;
    div(R)                  Gauss linear;
    div((nuEff*dev2(T(grad(U)))))  Gauss linear;
    div((nuEff*dev(T(grad(U)))))  Gauss linear;
}

laplacianSchemes
{
    default    Gauss linear corrected;
}

interpolationSchemes
{
    default    linear;
}

snGradSchemes
{
    default    uncorrected;
}
