FoamFile
{
    version     2.0;
    format      ascii;
    class       dictionary;
    location    "constant";
    object      fvOptions;
}

momentumSource
{
    type      meanVelocityForce;
    active    no;
    meanVelocityForceCoeffs
    {
        selectionMode    all;
        fields           (U);
        Ubar             (0.1 0 0);
    }
}

atmCoriolisUSource1
{
    type      atmCoriolisUSource;
    active    no;
    atmCoriolisUSourceCoeffs
    {
        selectionMode    all;
        Omega            (0 7.2921e-5 0);
    }
}
