FoamFile
{
    version     2.0;
    format      ascii;
    class       dictionary;
    location    "constant";
    object      transportProperties;
}

transportModel    Newtonian;

nu                nu [0 2 -1 0 0 0 0] 0.01;

Pr                Pr [0 0 0 0 0 0 0] 10;

beta              beta [0 0 0 -1 0 0 0] 0.000223;

TRef              TRef [0 0 0 1 0 0 0] 0.01;

Prt               Prt [0 0 0 0 0 0 0] 100.0;
