FoamFile
{
    version     2.0;
    format      ascii;
    class       volVectorField;
    object      U;
}

dimensions       [0 1 -1 0 0 0 0];

internalField    uniform (0.1 0 0);

boundaryField
{
    inlet
    {
        type    cyclic;
    }
    outlet
    {
        type    cyclic;
    }
    top
    {
        type    slip;
    }
    bottom
    {
        type    noSlip;
    }
    frontAndBackPlanes
    {
        type    empty;
    }
}
