/*--------------------------------*- C++ -*----------------------------------*\
| =========                 |                                                 |
| \\      /  F ield         | OpenFOAM: The Open Source CFD Toolbox           |
|  \\    /   O peration     | Version:  v2206                                 |
|   \\  /    A nd           | Website:  www.openfoam.com                      |
|    \\/     M anipulation  |                                                 |
\*---------------------------------------------------------------------------*/
FoamFile
{
    version     2.0;
    format      ascii;
    class       dictionary;
    object      transportProperties;
}

// * * * * * * * * * * * * * * * * * * * * * * * * * * * * * * * * * * * * * //

transportModel Newtonian;

// Laminar viscosity
nu            nu  [0 2 -1 0 0 0 0] 0.000002;

// Laminar Prandtl number
Pr            Pr [0 0 0 0 0 0 0] 1;

// Turbulent Prandtl number
Prt           Prt  [0 0 0 0 0 0 0] 0.85;

// ************************************************************************* //
