/*--------------------------------*- C++ -*----------------------------------*\
| =========                 |                                                 |
| \\      /  F ield         | OpenFOAM: The Open Source CFD Toolbox           |
|  \\    /   O peration     | Version:  v2206                                 |
|   \\  /    A nd           | Website:  www.openfoam.com                      |
|    \\/     M anipulation  |                                                 |
\*---------------------------------------------------------------------------*/
FoamFile
{
    version     2.0;
    format      ascii;
    class       dictionary;
    object      blockMeshDict;
}
// * * * * * * * * * * * * * * * * * * * * * * * * * * * * * * * * * * * * * //

scale   1;

vertices
(
    ( -5 -5  0 )  // 0 v-sw-z0
    (  0 -5  0 )  // 1 v-s-z0
    (  5 -5  0 )  // 2 v-se-z0
    (  5  0  0 )  // 3 v-e-z0
    (  5  5  0 )  // 4 v-ne-z0
    (  0  5  0 )  // 5 v-n-z0
    ( -5  5  0 )  // 6 v-nw-z0
    ( -5  0  0 )  // 7 v-w-z0
    (  0  0  3 )  // 8 v-c-z0
    ( -5 -5  10 )  // 9 v-sw-z
    (  0 -5  10 )  // 10 v-s-z
    (  5 -5  10 )  // 11 v-se-z
    (  5  0  10 )  // 12 v-e-z
    (  5  5  10 )  // 13 v-ne-z
    (  0  5  10 )  // 14 v-n-z
    ( -5  5  10 )  // 15 v-nw-z
    ( -5  0  10 )  // 16 v-w-z
    (  0  0  10 )  // 17 v-c-z
    ( -5 -5  20 )  // 18 v-sw-sponge
    (  5 -5  20 )  // 19 v-se-sponge
    (  5  5  20 )  // 20 v-ne-sponge
    ( -5  5  20 )  // 21 v-nw-sponge
);

blocks
(
    hex (0 1 8 7 9 10 17 16) sw (20 20 20) simpleGrading (1 1 1.1)  // sw (v-sw-z0 v-s-z0 v-c-z0 v-w-z0 v-sw-z v-s-z v-c-z v-w-z)
    hex (1 2 3 8 10 11 12 17) se (20 20 20) simpleGrading (1 1 1.1)  // se (v-s-z0 v-se-z0 v-e-z0 v-c-z0 v-s-z v-se-z v-e-z v-c-z)
    hex (8 3 4 5 17 12 13 14) ne (20 20 20) simpleGrading (1 1 1.1)  // ne (v-c-z0 v-e-z0 v-ne-z0 v-n-z0 v-c-z v-e-z v-ne-z v-n-z)
    hex (7 8 5 6 16 17 14 15) nw (20 20 20) simpleGrading (1 1 1.1)  // nw (v-w-z0 v-c-z0 v-n-z0 v-nw-z0 v-w-z v-c-z v-n-z v-nw-z)
    hex (9 11 13 15 18 19 20 21) porosity (40 40 10) simpleGrading (1 1 1.1)  // porosity (v-sw-z v-se-z v-ne-z v-nw-z v-sw-sponge v-se-sponge v-ne-sponge v-nw-sponge)
);

edges
(
    spline 1 8                      // spline-s (v-s-z0 v-c-z0)
    (
         (                  0                 -5 1.1179959516236e-05 )
         (                  0  -4.89795918367347 1.85249924600411e-05 )
         (                  0  -4.79591836734694 3.03776260882691e-05 )
         (                  0  -4.69387755102041 4.92978078550741e-05 )
         (                  0  -4.59183673469388 7.91734129661434e-05 )
         (                  0  -4.48979591836735 0.000125837218159902 )
         (                  0  -4.38775510204082 0.00019793237439383 )
         (                  0  -4.28571428571429 0.000308107693858966 )
         (                  0  -4.18367346938776 0.000474642076769322 )
         (                  0  -4.08163265306122 0.000723615583504113 )
         (                  0  -3.97959183673469 0.00109176098389436 )
         (                  0  -3.87755102040816 0.00163014115579433 )
         (                  0  -3.77551020408163 0.00240880052729263 )
         (                  0   -3.6734693877551 0.00352252793872312 )
         (                  0  -3.57142857142857 0.00509783809665798 )
         (                  0  -3.46938775510204 0.00730122301208814 )
         (                  0  -3.36734693877551 0.0103486374593938 )
         (                  0  -3.26530612244898 0.0145160586686813 )
         (                  0  -3.16326530612245 0.0201507975688755 )
         (                  0  -3.06122448979592 0.0276830380034589 )
         (                  0  -2.95918367346939 0.0376368476415846 )
         (                  0  -2.85714285714286 0.0506396524463697 )
         (                  0  -2.75510204081633 0.0674289155487945 )
         (                  0   -2.6530612244898  0.088854538805286 )
         (                  0  -2.55102040816327  0.115875345578177 )
         (                  0  -2.44897959183673  0.149547945489913 )
         (                  0   -2.3469387755102  0.191006366443028 )
         (                  0  -2.24489795918367  0.241431102872304 )
         (                  0  -2.14285714285714  0.302006699318693 )
         (                  0  -2.04081632653061  0.373867676377618 )
         (                  0  -1.93877551020408  0.458033501201243 )
         (                  0  -1.83673469387755    0.5553343694446 )
         (                  0  -1.73469387755102  0.666330732913576 )
         (                  0  -1.63265306122449  0.791230681890032 )
         (                  0  -1.53061224489796  0.929810354568919 )
         (                  0  -1.42857142857143   1.08134336579346 )
         (                  0   -1.3265306122449   1.24454569045493 )
         (                  0  -1.22448979591837    1.4175423865688 )
         (                  0  -1.12244897959184   1.59786191548452 )
         (                  0  -1.02040816326531   1.78246257775462 )
         (                  0 -0.918367346938775   1.96779376062162 )
         (                  0 -0.816326530612245   2.14989238280478 )
         (                  0 -0.714285714285714   2.32451228664975 )
         (                  0 -0.612244897959184   2.48728158489848 )
         (                  0 -0.510204081632653   2.63388037404805 )
         (                  0 -0.408163265306122   2.76022904359446 )
         (                  0 -0.306122448979592   2.86267588571359 )
         (                  0 -0.204081632653061   2.93817203822608 )
         (                  0 -0.102040816326531   2.98442209345947 )
         (                  0                  0                  3 )
)
    spline 3 8                      // spline-e (v-e-z0 v-c-z0)
    (
         (                  5                  0 1.1179959516236e-05 )
         (   4.89795918367347                  0 1.85249924600411e-05 )
         (   4.79591836734694                  0 3.03776260882691e-05 )
         (   4.69387755102041                  0 4.92978078550741e-05 )
         (   4.59183673469388                  0 7.91734129661434e-05 )
         (   4.48979591836735                  0 0.000125837218159902 )
         (   4.38775510204082                  0 0.00019793237439383 )
         (   4.28571428571429                  0 0.000308107693858966 )
         (   4.18367346938776                  0 0.000474642076769322 )
         (   4.08163265306122                  0 0.000723615583504113 )
         (   3.97959183673469                  0 0.00109176098389436 )
         (   3.87755102040816                  0 0.00163014115579433 )
         (   3.77551020408163                  0 0.00240880052729263 )
         (    3.6734693877551                  0 0.00352252793872312 )
         (   3.57142857142857                  0 0.00509783809665798 )
         (   3.46938775510204                  0 0.00730122301208814 )
         (   3.36734693877551                  0 0.0103486374593938 )
         (   3.26530612244898                  0 0.0145160586686813 )
         (   3.16326530612245                  0 0.0201507975688755 )
         (   3.06122448979592                  0 0.0276830380034589 )
         (   2.95918367346939                  0 0.0376368476415846 )
         (   2.85714285714286                  0 0.0506396524463697 )
         (   2.75510204081633                  0 0.0674289155487945 )
         (    2.6530612244898                  0  0.088854538805286 )
         (   2.55102040816327                  0  0.115875345578177 )
         (   2.44897959183673                  0  0.149547945489913 )
         (    2.3469387755102                  0  0.191006366443028 )
         (   2.24489795918367                  0  0.241431102872304 )
         (   2.14285714285714                  0  0.302006699318693 )
         (   2.04081632653061                  0  0.373867676377618 )
         (   1.93877551020408                  0  0.458033501201243 )
         (   1.83673469387755                  0    0.5553343694446 )
         (   1.73469387755102                  0  0.666330732913576 )
         (   1.63265306122449                  0  0.791230681890032 )
         (   1.53061224489796                  0  0.929810354568919 )
         (   1.42857142857143                  0   1.08134336579346 )
         (    1.3265306122449                  0   1.24454569045493 )
         (   1.22448979591837                  0    1.4175423865688 )
         (   1.12244897959184                  0   1.59786191548452 )
         (   1.02040816326531                  0   1.78246257775462 )
         (  0.918367346938775                  0   1.96779376062162 )
         (  0.816326530612245                  0   2.14989238280478 )
         (  0.714285714285714                  0   2.32451228664975 )
         (  0.612244897959184                  0   2.48728158489848 )
         (  0.510204081632653                  0   2.63388037404805 )
         (  0.408163265306122                  0   2.76022904359446 )
         (  0.306122448979592                  0   2.86267588571359 )
         (  0.204081632653061                  0   2.93817203822608 )
         (  0.102040816326531                  0   2.98442209345947 )
         (                  0                  0                  3 )
)
    spline 5 8                      // spline-n (v-n-z0 v-c-z0)
    (
         (                  0                  5 1.1179959516236e-05 )
         (                  0   4.89795918367347 1.85249924600411e-05 )
         (                  0   4.79591836734694 3.03776260882691e-05 )
         (                  0   4.69387755102041 4.92978078550741e-05 )
         (                  0   4.59183673469388 7.91734129661434e-05 )
         (                  0   4.48979591836735 0.000125837218159902 )
         (                  0   4.38775510204082 0.00019793237439383 )
         (                  0   4.28571428571429 0.000308107693858966 )
         (                  0   4.18367346938776 0.000474642076769322 )
         (                  0   4.08163265306122 0.000723615583504113 )
         (                  0   3.97959183673469 0.00109176098389436 )
         (                  0   3.87755102040816 0.00163014115579433 )
         (                  0   3.77551020408163 0.00240880052729263 )
         (                  0    3.6734693877551 0.00352252793872312 )
         (                  0   3.57142857142857 0.00509783809665798 )
         (                  0   3.46938775510204 0.00730122301208814 )
         (                  0   3.36734693877551 0.0103486374593938 )
         (                  0   3.26530612244898 0.0145160586686813 )
         (                  0   3.16326530612245 0.0201507975688755 )
         (                  0   3.06122448979592 0.0276830380034589 )
         (                  0   2.95918367346939 0.0376368476415846 )
         (                  0   2.85714285714286 0.0506396524463697 )
         (                  0   2.75510204081633 0.0674289155487945 )
         (                  0    2.6530612244898  0.088854538805286 )
         (                  0   2.55102040816327  0.115875345578177 )
         (                  0   2.44897959183673  0.149547945489913 )
         (                  0    2.3469387755102  0.191006366443028 )
         (                  0   2.24489795918367  0.241431102872304 )
         (                  0   2.14285714285714  0.302006699318693 )
         (                  0   2.04081632653061  0.373867676377618 )
         (                  0   1.93877551020408  0.458033501201243 )
         (                  0   1.83673469387755    0.5553343694446 )
         (                  0   1.73469387755102  0.666330732913576 )
         (                  0   1.63265306122449  0.791230681890032 )
         (                  0   1.53061224489796  0.929810354568919 )
         (                  0   1.42857142857143   1.08134336579346 )
         (                  0    1.3265306122449   1.24454569045493 )
         (                  0   1.22448979591837    1.4175423865688 )
         (                  0   1.12244897959184   1.59786191548452 )
         (                  0   1.02040816326531   1.78246257775462 )
         (                  0  0.918367346938775   1.96779376062162 )
         (                  0  0.816326530612245   2.14989238280478 )
         (                  0  0.714285714285714   2.32451228664975 )
         (                  0  0.612244897959184   2.48728158489848 )
         (                  0  0.510204081632653   2.63388037404805 )
         (                  0  0.408163265306122   2.76022904359446 )
         (                  0  0.306122448979592   2.86267588571359 )
         (                  0  0.204081632653061   2.93817203822608 )
         (                  0  0.102040816326531   2.98442209345947 )
         (                  0                  0                  3 )
)
    spline 7 8                      // spline-w (v-w-z0 v-c-z0)
    (
         (                 -5                  0 1.1179959516236e-05 )
         (  -4.89795918367347                  0 1.85249924600411e-05 )
         (  -4.79591836734694                  0 3.03776260882691e-05 )
         (  -4.69387755102041                  0 4.92978078550741e-05 )
         (  -4.59183673469388                  0 7.91734129661434e-05 )
         (  -4.48979591836735                  0 0.000125837218159902 )
         (  -4.38775510204082                  0 0.00019793237439383 )
         (  -4.28571428571429                  0 0.000308107693858966 )
         (  -4.18367346938776                  0 0.000474642076769322 )
         (  -4.08163265306122                  0 0.000723615583504113 )
         (  -3.97959183673469                  0 0.00109176098389436 )
         (  -3.87755102040816                  0 0.00163014115579433 )
         (  -3.77551020408163                  0 0.00240880052729263 )
         (   -3.6734693877551                  0 0.00352252793872312 )
         (  -3.57142857142857                  0 0.00509783809665798 )
         (  -3.46938775510204                  0 0.00730122301208814 )
         (  -3.36734693877551                  0 0.0103486374593938 )
         (  -3.26530612244898                  0 0.0145160586686813 )
         (  -3.16326530612245                  0 0.0201507975688755 )
         (  -3.06122448979592                  0 0.0276830380034589 )
         (  -2.95918367346939                  0 0.0376368476415846 )
         (  -2.85714285714286                  0 0.0506396524463697 )
         (  -2.75510204081633                  0 0.0674289155487945 )
         (   -2.6530612244898                  0  0.088854538805286 )
         (  -2.55102040816327                  0  0.115875345578177 )
         (  -2.44897959183673                  0  0.149547945489913 )
         (   -2.3469387755102                  0  0.191006366443028 )
         (  -2.24489795918367                  0  0.241431102872304 )
         (  -2.14285714285714                  0  0.302006699318693 )
         (  -2.04081632653061                  0  0.373867676377618 )
         (  -1.93877551020408                  0  0.458033501201243 )
         (  -1.83673469387755                  0    0.5553343694446 )
         (  -1.73469387755102                  0  0.666330732913576 )
         (  -1.63265306122449                  0  0.791230681890032 )
         (  -1.53061224489796                  0  0.929810354568919 )
         (  -1.42857142857143                  0   1.08134336579346 )
         (   -1.3265306122449                  0   1.24454569045493 )
         (  -1.22448979591837                  0    1.4175423865688 )
         (  -1.12244897959184                  0   1.59786191548452 )
         (  -1.02040816326531                  0   1.78246257775462 )
         ( -0.918367346938775                  0   1.96779376062162 )
         ( -0.816326530612245                  0   2.14989238280478 )
         ( -0.714285714285714                  0   2.32451228664975 )
         ( -0.612244897959184                  0   2.48728158489848 )
         ( -0.510204081632653                  0   2.63388037404805 )
         ( -0.408163265306122                  0   2.76022904359446 )
         ( -0.306122448979592                  0   2.86267588571359 )
         ( -0.204081632653061                  0   2.93817203822608 )
         ( -0.102040816326531                  0   2.98442209345947 )
         (                  0                  0                  3 )
)
);

boundary
(
    top
    {
        type wall;
        faces
        (
            (18 19 20 21)  // f-porosity-t (v-sw-sponge v-se-sponge v-ne-sponge v-nw-sponge)
        );
    }
    bottom
    {
        type wall;
        faces
        (
            (0 7 8 1)  // f-sw-b (v-sw-z0 v-w-z0 v-c-z0 v-s-z0)
            (1 8 3 2)  // f-se-b (v-s-z0 v-c-z0 v-e-z0 v-se-z0)
            (8 5 4 3)  // f-ne-b (v-c-z0 v-n-z0 v-ne-z0 v-e-z0)
            (7 6 5 8)  // f-nw-b (v-w-z0 v-nw-z0 v-n-z0 v-c-z0)
        );
    }
    outlet
    {
        type cyclic;
        neighbourPatch  inlet;
        faces
        (
            (2 3 12 11)  // f-se-e (v-se-z0 v-e-z0 v-e-z v-se-z)
            (3 4 13 12)  // f-ne-e (v-e-z0 v-ne-z0 v-ne-z v-e-z)
            (11 13 20 19)  // f-porosity-e (v-se-z v-ne-z v-ne-sponge v-se-sponge)
        );
    }
    inlet
    {
        type cyclic;
        neighbourPatch  outlet;
        faces
        (
            (0 9 16 7)  // f-sw-w (v-sw-z0 v-sw-z v-w-z v-w-z0)
            (7 16 15 6)  // f-nw-w (v-w-z0 v-w-z v-nw-z v-nw-z0)
            (9 18 21 15)  // f-porosity-w (v-sw-z v-sw-sponge v-nw-sponge v-nw-z)
        );
    }
    front
    {
        type cyclic;
        neighbourPatch  back;
        faces
        (
            (0 1 10 9)  // f-sw-s (v-sw-z0 v-s-z0 v-s-z v-sw-z)
            (1 2 11 10)  // f-se-s (v-s-z0 v-se-z0 v-se-z v-s-z)
            (9 11 19 18)  // f-porosity-s (v-sw-z v-se-z v-se-sponge v-sw-sponge)
        );
    }
    back
    {
        type cyclic;
        neighbourPatch  front;
        faces
        (
            (4 5 14 13)  // f-ne-n (v-ne-z0 v-n-z0 v-n-z v-ne-z)
            (5 6 15 14)  // f-nw-n (v-n-z0 v-nw-z0 v-nw-z v-n-z)
            (13 15 21 20)  // f-porosity-n (v-ne-z v-nw-z v-nw-sponge v-ne-sponge)
        );
    }
    interface_top
    {
        type patch;
        faces
        (
            (9 10 17 16)  // f-sw-t (v-sw-z v-s-z v-c-z v-w-z)
            (10 11 12 17)  // f-se-t (v-s-z v-se-z v-e-z v-c-z)
            (17 12 13 14)  // f-ne-t (v-c-z v-e-z v-ne-z v-n-z)
            (16 17 14 15)  // f-nw-t (v-w-z v-c-z v-n-z v-nw-z)
        );
    }
    interface_sponge
    {
        type patch;
        faces
        (
            (9 15 13 11)  // f-porosity-b (v-sw-z v-nw-z v-ne-z v-se-z)
        );
    }
);

mergePatchPairs
(
    (interface_sponge interface_top)  // (merge patch pairs: interface_sponge and interface_top)
);

// ************************************************************************* //
