/*--------------------------------*- C++ -*----------------------------------*\
| =========                 |                                                 |
| \\      /  F ield         | OpenFOAM: The Open Source CFD Toolbox           |
|  \\    /   O peration     | Version:  v2206                                 |
|   \\  /    A nd           | Website:  www.openfoam.com                      |
|    \\/     M anipulation  |                                                 |
\*---------------------------------------------------------------------------*/
FoamFile
{
    version     2.0;
    format      ascii;
    class       dictionary;
    object      blockMeshDict;
}
// * * * * * * * * * * * * * * * * * * * * * * * * * * * * * * * * * * * * * //

scale   1;

vertices
(
    (  0  0  0 )  // 0 v-bot-inlet-z0
    (  0.6  0  0 )  // 1 v-bot-hill_start-z0
    (  1.5  0  0 )  // 2 v-bot-hill_end-z0
    (  6  0  0 )  // 3 v-bot-outlet-z0
    (  0  1  0 )  // 4 v-top-inlet-z0
    (  0.6  1  0 )  // 5 v-top-hill_start-z0
    (  1.5  1  0 )  // 6 v-top-hill_end-z0
    (  6  1  0 )  // 7 v-top-outlet-z0
    (  0  2  0 )  // 8 v-sponge-inlet-z0
    (  6  2  0 )  // 9 v-sponge-outlet-z0
    (  0  0  0.01 )  // 10 v-bot-inlet-z
    (  0.6  0  0.01 )  // 11 v-bot-hill_start-z
    (  1.5  0  0.01 )  // 12 v-bot-hill_end-z
    (  6  0  0.01 )  // 13 v-bot-outlet-z
    (  0  1  0.01 )  // 14 v-top-inlet-z
    (  0.6  1  0.01 )  // 15 v-top-hill_start-z
    (  1.5  1  0.01 )  // 16 v-top-hill_end-z
    (  6  1  0.01 )  // 17 v-top-outlet-z
    (  0  2  0.01 )  // 18 v-sponge-inlet-z
    (  6  2  0.01 )  // 19 v-sponge-outlet-z
);

blocks
(
    hex (0 1 5 4 10 11 15 14) b-up_stream (6 30 1) simpleGrading (1 ( ( 0.1 0.25 41.9 ) ( 0.9 0.75 1 ) ) 1)  // b-up_stream (v-bot-inlet-z0 v-bot-hill_start-z0 v-top-hill_start-z0 v-top-inlet-z0 v-bot-inlet-z v-bot-hill_start-z v-top-hill_start-z v-top-inlet-z)
    hex (1 2 6 5 11 12 16 15) b-hill (9 30 1) simpleGrading (1 ( ( 0.1 0.25 41.9 ) ( 0.9 0.75 1 ) ) 1)  // b-hill (v-bot-hill_start-z0 v-bot-hill_end-z0 v-top-hill_end-z0 v-top-hill_start-z0 v-bot-hill_start-z v-bot-hill_end-z v-top-hill_end-z v-top-hill_start-z)
    hex (2 3 7 6 12 13 17 16) b-down_stream (45 30 1) simpleGrading (1 ( ( 0.1 0.25 41.9 ) ( 0.9 0.75 1 ) ) 1)  // b-down_stream (v-bot-hill_end-z0 v-bot-outlet-z0 v-top-outlet-z0 v-top-hill_end-z0 v-bot-hill_end-z v-bot-outlet-z v-top-outlet-z v-top-hill_end-z)
    hex (4 7 9 8 14 17 19 18) porosity (60 15 1) simpleGrading (1 1 1)  // porosity (v-top-inlet-z0 v-top-outlet-z0 v-sponge-outlet-z0 v-sponge-inlet-z0 v-top-inlet-z v-top-outlet-z v-sponge-outlet-z v-sponge-inlet-z)
);

edges
(
    spline 1 2                      // spline-z0 (v-bot-hill_start-z0 v-bot-hill_end-z0)
    (
         (                0.6 7.49221066332242e-07                  0 )
         (  0.618367346938775 2.0357459593161e-06                  0 )
         (  0.636734693877551 5.30577850496795e-06                  0 )
         (  0.655102040816327 1.32643686580132e-05                  0 )
         (  0.673469387755102 3.18079723246606e-05                  0 )
         (  0.691836734693878 7.31639794710683e-05                  0 )
         (  0.710204081632653 0.000161424922605395                  0 )
         (  0.728571428571429 0.000341629832310261                  0 )
         (  0.746938775510204 0.000693510310225451                  0 )
         (   0.76530612244898 0.00135039863248815                  0 )
         (  0.783673469387755 0.0025222201460087                  0 )
         (  0.802040816326531 0.0045187251291678                  0 )
         (  0.820408163265306 0.0077653456481323                  0 )
         (  0.838775510204082   0.01280022466404                  0 )
         (  0.857142857142857 0.0202388730455091                  0 )
         (  0.875510204081633 0.0306949544573503                  0 )
         (  0.893877551020408 0.0446539203937592                  0 )
         (  0.912244897959184 0.0623109148405415                  0 )
         (  0.930612244897959 0.0834027930018627                  0 )
         (  0.948979591836735  0.107080155919387                  0 )
         (   0.96734693877551  0.131871008791561                  0 )
         (  0.985714285714286  0.155776375717366                  0 )
         (   1.00408163265306  0.176508569603499                  0 )
         (   1.02244897959184  0.191841220582525                  0 )
         (   1.04081632653061                0.2                  0 )
         (   1.05918367346939                0.2                  0 )
         (   1.07755102040816  0.191841220582525                  0 )
         (   1.09591836734694  0.176508569603499                  0 )
         (   1.11428571428571  0.155776375717366                  0 )
         (   1.13265306122449  0.131871008791561                  0 )
         (   1.15102040816327  0.107080155919387                  0 )
         (   1.16938775510204 0.0834027930018627                  0 )
         (   1.18775510204082 0.0623109148405415                  0 )
         (   1.20612244897959 0.0446539203937591                  0 )
         (   1.22448979591837 0.0306949544573503                  0 )
         (   1.24285714285714 0.0202388730455091                  0 )
         (   1.26122448979592   0.01280022466404                  0 )
         (   1.27959183673469 0.00776534564813229                  0 )
         (   1.29795918367347 0.0045187251291678                  0 )
         (   1.31632653061224 0.00252222014600869                  0 )
         (   1.33469387755102 0.00135039863248815                  0 )
         (    1.3530612244898 0.00069351031022545                  0 )
         (   1.37142857142857 0.00034162983231026                  0 )
         (   1.38979591836735 0.000161424922605395                  0 )
         (   1.40816326530612 7.31639794710683e-05                  0 )
         (    1.4265306122449 3.18079723246606e-05                  0 )
         (   1.44489795918367 1.32643686580132e-05                  0 )
         (   1.46326530612245 5.30577850496795e-06                  0 )
         (   1.48163265306122 2.03574595931609e-06                  0 )
         (                1.5 7.49221066332242e-07                  0 )
)
    spline 11 12                      // spline-z (v-bot-hill_start-z v-bot-hill_end-z)
    (
         (                0.6 7.49221066332242e-07               0.01 )
         (  0.618367346938775 2.0357459593161e-06               0.01 )
         (  0.636734693877551 5.30577850496795e-06               0.01 )
         (  0.655102040816327 1.32643686580132e-05               0.01 )
         (  0.673469387755102 3.18079723246606e-05               0.01 )
         (  0.691836734693878 7.31639794710683e-05               0.01 )
         (  0.710204081632653 0.000161424922605395               0.01 )
         (  0.728571428571429 0.000341629832310261               0.01 )
         (  0.746938775510204 0.000693510310225451               0.01 )
         (   0.76530612244898 0.00135039863248815               0.01 )
         (  0.783673469387755 0.0025222201460087               0.01 )
         (  0.802040816326531 0.0045187251291678               0.01 )
         (  0.820408163265306 0.0077653456481323               0.01 )
         (  0.838775510204082   0.01280022466404               0.01 )
         (  0.857142857142857 0.0202388730455091               0.01 )
         (  0.875510204081633 0.0306949544573503               0.01 )
         (  0.893877551020408 0.0446539203937592               0.01 )
         (  0.912244897959184 0.0623109148405415               0.01 )
         (  0.930612244897959 0.0834027930018627               0.01 )
         (  0.948979591836735  0.107080155919387               0.01 )
         (   0.96734693877551  0.131871008791561               0.01 )
         (  0.985714285714286  0.155776375717366               0.01 )
         (   1.00408163265306  0.176508569603499               0.01 )
         (   1.02244897959184  0.191841220582525               0.01 )
         (   1.04081632653061                0.2               0.01 )
         (   1.05918367346939                0.2               0.01 )
         (   1.07755102040816  0.191841220582525               0.01 )
         (   1.09591836734694  0.176508569603499               0.01 )
         (   1.11428571428571  0.155776375717366               0.01 )
         (   1.13265306122449  0.131871008791561               0.01 )
         (   1.15102040816327  0.107080155919387               0.01 )
         (   1.16938775510204 0.0834027930018627               0.01 )
         (   1.18775510204082 0.0623109148405415               0.01 )
         (   1.20612244897959 0.0446539203937591               0.01 )
         (   1.22448979591837 0.0306949544573503               0.01 )
         (   1.24285714285714 0.0202388730455091               0.01 )
         (   1.26122448979592   0.01280022466404               0.01 )
         (   1.27959183673469 0.00776534564813229               0.01 )
         (   1.29795918367347 0.0045187251291678               0.01 )
         (   1.31632653061224 0.00252222014600869               0.01 )
         (   1.33469387755102 0.00135039863248815               0.01 )
         (    1.3530612244898 0.00069351031022545               0.01 )
         (   1.37142857142857 0.00034162983231026               0.01 )
         (   1.38979591836735 0.000161424922605395               0.01 )
         (   1.40816326530612 7.31639794710683e-05               0.01 )
         (    1.4265306122449 3.18079723246606e-05               0.01 )
         (   1.44489795918367 1.32643686580132e-05               0.01 )
         (   1.46326530612245 5.30577850496795e-06               0.01 )
         (   1.48163265306122 2.03574595931609e-06               0.01 )
         (                1.5 7.49221066332242e-07               0.01 )
)
);

boundary
(
    top
    {
        type wall;
        faces
        (
            (9 8 18 19)  // f-porosity-n (v-sponge-outlet-z0 v-sponge-inlet-z0 v-sponge-inlet-z v-sponge-outlet-z)
        );
    }
    bottom
    {
        type wall;
        faces
        (
            (0 1 11 10)  // f-b-up_stream-s (v-bot-inlet-z0 v-bot-hill_start-z0 v-bot-hill_start-z v-bot-inlet-z)
            (1 2 12 11)  // f-b-hill-s (v-bot-hill_start-z0 v-bot-hill_end-z0 v-bot-hill_end-z v-bot-hill_start-z)
            (2 3 13 12)  // f-b-down_stream-s (v-bot-hill_end-z0 v-bot-outlet-z0 v-bot-outlet-z v-bot-hill_end-z)
        );
    }
    outlet
    {
        type cyclic;
        neighbourPatch  inlet;
        faces
        (
            (3 7 17 13)  // f-b-down_stream-e (v-bot-outlet-z0 v-top-outlet-z0 v-top-outlet-z v-bot-outlet-z)
            (7 9 19 17)  // f-porosity-e (v-top-outlet-z0 v-sponge-outlet-z0 v-sponge-outlet-z v-top-outlet-z)
        );
    }
    inlet
    {
        type cyclic;
        neighbourPatch  outlet;
        faces
        (
            (0 10 14 4)  // f-b-up_stream-w (v-bot-inlet-z0 v-bot-inlet-z v-top-inlet-z v-top-inlet-z0)
            (4 14 18 8)  // f-porosity-w (v-top-inlet-z0 v-top-inlet-z v-sponge-inlet-z v-sponge-inlet-z0)
        );
    }
    frontandbackplanes
    {
        type empty;
        faces
        (
            (0 4 5 1)  // f-b-up_stream-b (v-bot-inlet-z0 v-top-inlet-z0 v-top-hill_start-z0 v-bot-hill_start-z0)
            (1 5 6 2)  // f-b-hill-b (v-bot-hill_start-z0 v-top-hill_start-z0 v-top-hill_end-z0 v-bot-hill_end-z0)
            (2 6 7 3)  // f-b-down_stream-b (v-bot-hill_end-z0 v-top-hill_end-z0 v-top-outlet-z0 v-bot-outlet-z0)
            (4 8 9 7)  // f-porosity-b (v-top-inlet-z0 v-sponge-inlet-z0 v-sponge-outlet-z0 v-top-outlet-z0)
            (10 11 15 14)  // f-b-up_stream-t (v-bot-inlet-z v-bot-hill_start-z v-top-hill_start-z v-top-inlet-z)
            (11 12 16 15)  // f-b-hill-t (v-bot-hill_start-z v-bot-hill_end-z v-top-hill_end-z v-top-hill_start-z)
            (12 13 17 16)  // f-b-down_stream-t (v-bot-hill_end-z v-bot-outlet-z v-top-outlet-z v-top-hill_end-z)
            (14 17 19 18)  // f-porosity-t (v-top-inlet-z v-top-outlet-z v-sponge-outlet-z v-sponge-inlet-z)
        );
    }
    interface_top
    {
        type patch;
        faces
        (
            (5 4 14 15)  // f-b-up_stream-n (v-top-hill_start-z0 v-top-inlet-z0 v-top-inlet-z v-top-hill_start-z)
            (6 5 15 16)  // f-b-hill-n (v-top-hill_end-z0 v-top-hill_start-z0 v-top-hill_start-z v-top-hill_end-z)
            (7 6 16 17)  // f-b-down_stream-n (v-top-outlet-z0 v-top-hill_end-z0 v-top-hill_end-z v-top-outlet-z)
        );
    }
    interface_sponge
    {
        type patch;
        faces
        (
            (4 7 17 14)  // f-porosity-s (v-top-inlet-z0 v-top-outlet-z0 v-top-outlet-z v-top-inlet-z)
        );
    }
);

mergePatchPairs
(
    (interface_sponge interface_top)  // (merge patch pairs: interface_sponge and interface_top)
);

// ************************************************************************* //
