/*--------------------------------*- C++ -*----------------------------------*\
| =========                 |                                                 |
| \\      /  F ield         | OpenFOAM: The Open Source CFD Toolbox           |
|  \\    /   O peration     | Version:  v2206                                 |
|   \\  /    A nd           | Website:  www.openfoam.com                      |
|    \\/     M anipulation  |                                                 |
\*---------------------------------------------------------------------------*/
FoamFile
{
    version     2.0;
    format      ascii;
    class       dictionary;
    object      blockMeshDict;
}
// * * * * * * * * * * * * * * * * * * * * * * * * * * * * * * * * * * * * * //

scale   1;

vertices
(
    (  0  0  0 )  // 0 v-bot-inlet-z0
    (  0.6  0  0 )  // 1 v-bot-hill_start-z0
    (  2.34  0  0 )  // 2 v-bot-hill_end-z0
    (  6  0  0 )  // 3 v-bot-outlet-z0
    (  0  1  0 )  // 4 v-top-inlet-z0
    (  0.6  1  0 )  // 5 v-top-hill_start-z0
    (  2.34  1  0 )  // 6 v-top-hill_end-z0
    (  6  1  0 )  // 7 v-top-outlet-z0
    (  0  2  0 )  // 8 v-sponge-inlet-z0
    (  6  2  0 )  // 9 v-sponge-outlet-z0
    (  0  0  0.01 )  // 10 v-bot-inlet-z
    (  0.6  0  0.01 )  // 11 v-bot-hill_start-z
    (  2.34  0  0.01 )  // 12 v-bot-hill_end-z
    (  6  0  0.01 )  // 13 v-bot-outlet-z
    (  0  1  0.01 )  // 14 v-top-inlet-z
    (  0.6  1  0.01 )  // 15 v-top-hill_start-z
    (  2.34  1  0.01 )  // 16 v-top-hill_end-z
    (  6  1  0.01 )  // 17 v-top-outlet-z
    (  0  2  0.01 )  // 18 v-sponge-inlet-z
    (  6  2  0.01 )  // 19 v-sponge-outlet-z
);

blocks
(
    hex (0 1 5 4 10 11 15 14) b-up_stream (6 30 1) simpleGrading (1 ( ( 0.1 0.25 41.9 ) ( 0.9 0.75 1 ) ) 1)  // b-up_stream (v-bot-inlet-z0 v-bot-hill_start-z0 v-top-hill_start-z0 v-top-inlet-z0 v-bot-inlet-z v-bot-hill_start-z v-top-hill_start-z v-top-inlet-z)
    hex (1 2 6 5 11 12 16 15) b-hill (19 30 1) simpleGrading (1 ( ( 0.1 0.25 41.9 ) ( 0.9 0.75 1 ) ) 1)  // b-hill (v-bot-hill_start-z0 v-bot-hill_end-z0 v-top-hill_end-z0 v-top-hill_start-z0 v-bot-hill_start-z v-bot-hill_end-z v-top-hill_end-z v-top-hill_start-z)
    hex (2 3 7 6 12 13 17 16) b-down_stream (35 30 1) simpleGrading (1 ( ( 0.1 0.25 41.9 ) ( 0.9 0.75 1 ) ) 1)  // b-down_stream (v-bot-hill_end-z0 v-bot-outlet-z0 v-top-outlet-z0 v-top-hill_end-z0 v-bot-hill_end-z v-bot-outlet-z v-top-outlet-z v-top-hill_end-z)
    hex (4 7 9 8 14 17 19 18) porosity (60 30 1) simpleGrading (1 1 1)  // porosity (v-top-inlet-z0 v-top-outlet-z0 v-sponge-outlet-z0 v-sponge-inlet-z0 v-top-inlet-z v-top-outlet-z v-sponge-outlet-z v-sponge-inlet-z)
);

edges
(
    spline 1 2                      // spline-z0 (v-bot-hill_start-z0 v-bot-hill_end-z0)
    (
         (                0.6 6.48437651941689e-07                  0 )
         (              0.658 3.24761762575257e-06                  0 )
         (              0.716 1.45548124179726e-05                  0 )
         (              0.774 5.83704972550371e-05                  0 )
         (              0.832 0.000209471639100107                  0 )
         (               0.89 0.000672670104268268                  0 )
         (              0.948 0.00193296539765416                  0 )
         (              1.006 0.00497039713651176                  0 )
         (              1.064 0.0114367639792763                  0 )
         (              1.122 0.0235483392831706                  0 )
         (               1.18 0.0433872843272495                  0 )
         (              1.238 0.0715335385482506                  0 )
         (              1.296  0.105536334789998                  0 )
         (              1.354  0.139328308107525                  0 )
         (              1.412  0.164596947589777                  0 )
         (               1.47              0.174                  0 )
         (              1.528  0.164596947589777                  0 )
         (              1.586  0.139328308107525                  0 )
         (              1.644  0.105536334789998                  0 )
         (              1.702 0.0715335385482506                  0 )
         (               1.76 0.0433872843272496                  0 )
         (              1.818 0.0235483392831706                  0 )
         (              1.876 0.0114367639792763                  0 )
         (              1.934 0.00497039713651177                  0 )
         (              1.992 0.00193296539765416                  0 )
         (               2.05 0.000672670104268271                  0 )
         (              2.108 0.000209471639100108                  0 )
         (              2.166 5.83704972550371e-05                  0 )
         (              2.224 1.45548124179727e-05                  0 )
         (              2.282 3.24761762575259e-06                  0 )
         (               2.34 6.48437651941689e-07                  0 )
)
    spline 11 12                      // spline-z (v-bot-hill_start-z v-bot-hill_end-z)
    (
         (                0.6 6.48437651941689e-07               0.01 )
         (              0.658 3.24761762575257e-06               0.01 )
         (              0.716 1.45548124179726e-05               0.01 )
         (              0.774 5.83704972550371e-05               0.01 )
         (              0.832 0.000209471639100107               0.01 )
         (               0.89 0.000672670104268268               0.01 )
         (              0.948 0.00193296539765416               0.01 )
         (              1.006 0.00497039713651176               0.01 )
         (              1.064 0.0114367639792763               0.01 )
         (              1.122 0.0235483392831706               0.01 )
         (               1.18 0.0433872843272495               0.01 )
         (              1.238 0.0715335385482506               0.01 )
         (              1.296  0.105536334789998               0.01 )
         (              1.354  0.139328308107525               0.01 )
         (              1.412  0.164596947589777               0.01 )
         (               1.47              0.174               0.01 )
         (              1.528  0.164596947589777               0.01 )
         (              1.586  0.139328308107525               0.01 )
         (              1.644  0.105536334789998               0.01 )
         (              1.702 0.0715335385482506               0.01 )
         (               1.76 0.0433872843272496               0.01 )
         (              1.818 0.0235483392831706               0.01 )
         (              1.876 0.0114367639792763               0.01 )
         (              1.934 0.00497039713651177               0.01 )
         (              1.992 0.00193296539765416               0.01 )
         (               2.05 0.000672670104268271               0.01 )
         (              2.108 0.000209471639100108               0.01 )
         (              2.166 5.83704972550371e-05               0.01 )
         (              2.224 1.45548124179727e-05               0.01 )
         (              2.282 3.24761762575259e-06               0.01 )
         (               2.34 6.48437651941689e-07               0.01 )
)
);

boundary
(
    top
    {
        type wall;
        faces
        (
            (9 8 18 19)  // f-porosity-n (v-sponge-outlet-z0 v-sponge-inlet-z0 v-sponge-inlet-z v-sponge-outlet-z)
        );
    }
    bottom
    {
        type wall;
        faces
        (
            (0 1 11 10)  // f-b-up_stream-s (v-bot-inlet-z0 v-bot-hill_start-z0 v-bot-hill_start-z v-bot-inlet-z)
            (1 2 12 11)  // f-b-hill-s (v-bot-hill_start-z0 v-bot-hill_end-z0 v-bot-hill_end-z v-bot-hill_start-z)
            (2 3 13 12)  // f-b-down_stream-s (v-bot-hill_end-z0 v-bot-outlet-z0 v-bot-outlet-z v-bot-hill_end-z)
        );
    }
    outlet
    {
        type cyclic;
        neighbourPatch  inlet;
        faces
        (
            (3 7 17 13)  // f-b-down_stream-e (v-bot-outlet-z0 v-top-outlet-z0 v-top-outlet-z v-bot-outlet-z)
            (7 9 19 17)  // f-porosity-e (v-top-outlet-z0 v-sponge-outlet-z0 v-sponge-outlet-z v-top-outlet-z)
        );
    }
    inlet
    {
        type cyclic;
        neighbourPatch  outlet;
        faces
        (
            (0 10 14 4)  // f-b-up_stream-w (v-bot-inlet-z0 v-bot-inlet-z v-top-inlet-z v-top-inlet-z0)
            (4 14 18 8)  // f-porosity-w (v-top-inlet-z0 v-top-inlet-z v-sponge-inlet-z v-sponge-inlet-z0)
        );
    }
    frontandbackplanes
    {
        type empty;
        faces
        (
            (0 4 5 1)  // f-b-up_stream-b (v-bot-inlet-z0 v-top-inlet-z0 v-top-hill_start-z0 v-bot-hill_start-z0)
            (1 5 6 2)  // f-b-hill-b (v-bot-hill_start-z0 v-top-hill_start-z0 v-top-hill_end-z0 v-bot-hill_end-z0)
            (2 6 7 3)  // f-b-down_stream-b (v-bot-hill_end-z0 v-top-hill_end-z0 v-top-outlet-z0 v-bot-outlet-z0)
            (4 8 9 7)  // f-porosity-b (v-top-inlet-z0 v-sponge-inlet-z0 v-sponge-outlet-z0 v-top-outlet-z0)
            (10 11 15 14)  // f-b-up_stream-t (v-bot-inlet-z v-bot-hill_start-z v-top-hill_start-z v-top-inlet-z)
            (11 12 16 15)  // f-b-hill-t (v-bot-hill_start-z v-bot-hill_end-z v-top-hill_end-z v-top-hill_start-z)
            (12 13 17 16)  // f-b-down_stream-t (v-bot-hill_end-z v-bot-outlet-z v-top-outlet-z v-top-hill_end-z)
            (14 17 19 18)  // f-porosity-t (v-top-inlet-z v-top-outlet-z v-sponge-outlet-z v-sponge-inlet-z)
        );
    }
    interface_top
    {
        type patch;
        faces
        (
            (5 4 14 15)  // f-b-up_stream-n (v-top-hill_start-z0 v-top-inlet-z0 v-top-inlet-z v-top-hill_start-z)
            (6 5 15 16)  // f-b-hill-n (v-top-hill_end-z0 v-top-hill_start-z0 v-top-hill_start-z v-top-hill_end-z)
            (7 6 16 17)  // f-b-down_stream-n (v-top-outlet-z0 v-top-hill_end-z0 v-top-hill_end-z v-top-outlet-z)
        );
    }
    interface_sponge
    {
        type patch;
        faces
        (
            (4 7 17 14)  // f-porosity-s (v-top-inlet-z0 v-top-outlet-z0 v-top-outlet-z v-top-inlet-z)
        );
    }
);

mergePatchPairs
(
    (interface_sponge interface_top)  // (merge patch pairs: interface_sponge and interface_top)
);

// ************************************************************************* //
