/*--------------------------------*- C++ -*----------------------------------*\
| =========                 |                                                 |
| \\      /  F ield         | OpenFOAM: The Open Source CFD Toolbox           |
|  \\    /   O peration     | Version:  v2206                                 |
|   \\  /    A nd           | Website:  www.openfoam.com                      |
|    \\/     M anipulation  |                                                 |
\*---------------------------------------------------------------------------*/
FoamFile
{
    version     2.0;
    format      ascii;
    class       dictionary;
    object      blockMeshDict;
}
// * * * * * * * * * * * * * * * * * * * * * * * * * * * * * * * * * * * * * //

scale   1;

vertices
(
    ( -5 -5  0 )  // 0 v-sw-z0
    (  0 -5  0 )  // 1 v-s-z0
    (  5 -5  0 )  // 2 v-se-z0
    (  5  0  0 )  // 3 v-e-z0
    (  5  5  0 )  // 4 v-ne-z0
    (  0  5  0 )  // 5 v-n-z0
    ( -5  5  0 )  // 6 v-nw-z0
    ( -5  0  0 )  // 7 v-w-z0
    (  0  0  3 )  // 8 v-c-z0
    ( -5 -5  10 )  // 9 v-sw-z
    (  0 -5  10 )  // 10 v-s-z
    (  5 -5  10 )  // 11 v-se-z
    (  5  0  10 )  // 12 v-e-z
    (  5  5  10 )  // 13 v-ne-z
    (  0  5  10 )  // 14 v-n-z
    ( -5  5  10 )  // 15 v-nw-z
    ( -5  0  10 )  // 16 v-w-z
    (  0  0  10 )  // 17 v-c-z
    ( -5 -5  20 )  // 18 v-sw-sponge
    (  0 -5  20 )  // 19 v-s-sponge
    (  5 -5  20 )  // 20 v-se-sponge
    (  5  0  20 )  // 21 v-e-sponge
    (  5  5  20 )  // 22 v-ne-sponge
    (  0  5  20 )  // 23 v-n-sponge
    ( -5  5  20 )  // 24 v-nw-sponge
    ( -5  0  20 )  // 25 v-w-sponge
    (  0  0  20 )  // 26 v-c-sponge
);

blocks
(
    hex (0 1 8 7 9 10 17 16) sw (20 20 20) simpleGrading (1 1 1.1)  // sw (v-sw-z0 v-s-z0 v-c-z0 v-w-z0 v-sw-z v-s-z v-c-z v-w-z)
    hex (1 2 3 8 10 11 12 17) se (20 20 20) simpleGrading (1 1 1.1)  // se (v-s-z0 v-se-z0 v-e-z0 v-c-z0 v-s-z v-se-z v-e-z v-c-z)
    hex (8 3 4 5 17 12 13 14) ne (20 20 20) simpleGrading (1 1 1.1)  // ne (v-c-z0 v-e-z0 v-ne-z0 v-n-z0 v-c-z v-e-z v-ne-z v-n-z)
    hex (7 8 5 6 16 17 14 15) nw (20 20 20) simpleGrading (1 1 1.1)  // nw (v-w-z0 v-c-z0 v-n-z0 v-nw-z0 v-w-z v-c-z v-n-z v-nw-z)
    hex (9 10 17 16 18 19 26 25) sponge-sw (20 20 10) simpleGrading (1 1 1.1)  // sponge-sw (v-sw-z v-s-z v-c-z v-w-z v-sw-sponge v-s-sponge v-c-sponge v-w-sponge)
    hex (10 11 12 17 19 20 21 26) sponge-se (20 20 10) simpleGrading (1 1 1.1)  // sponge-se (v-s-z v-se-z v-e-z v-c-z v-s-sponge v-se-sponge v-e-sponge v-c-sponge)
    hex (17 12 13 14 26 21 22 23) sponge-ne (20 20 10) simpleGrading (1 1 1.1)  // sponge-ne (v-c-z v-e-z v-ne-z v-n-z v-c-sponge v-e-sponge v-ne-sponge v-n-sponge)
    hex (16 17 14 15 25 26 23 24) sponge-nw (20 20 10) simpleGrading (1 1 1.1)  // sponge-nw (v-w-z v-c-z v-n-z v-nw-z v-w-sponge v-c-sponge v-n-sponge v-nw-sponge)
);

edges
(
    spline 1 8                      // spline-s (v-s-z0 v-c-z0)
    (
         (                  0                 -5 1.1179959516236e-05 )
         (                  0   -4.9748743718593 1.26725132728895e-05 )
         (                  0  -4.94974874371859 1.43552615517383e-05 )
         (                  0  -4.92462311557789 1.62511947864086e-05 )
         (                  0  -4.89949748743719 1.83859177502139e-05 )
         (                  0  -4.87437185929648 2.0787925956092e-05 )
         (                  0  -4.84924623115578 2.34889087450699e-05 )
         (                  0  -4.82412060301508 2.65240813468057e-05 )
         (                  0  -4.79899497487437 2.99325483586504e-05 )
         (                  0  -4.77386934673367 3.37577012607103e-05 )
         (                  0  -4.74874371859296 3.80476527635873e-05 )
         (                  0  -4.72361809045226 4.28557109728162e-05 )
         (                  0  -4.69849246231156 4.82408965494157e-05 )
         (                  0  -4.67336683417085 5.42685062492827e-05 )
         (                  0  -4.64824120603015 6.1010726435161e-05 )
         (                  0  -4.62311557788945 6.85473003733263e-05 )
         (                  0  -4.59798994974874 7.69662533525291e-05 )
         (                  0  -4.57286432160804 8.63646798947021e-05 )
         (                  0  -4.54773869346734 9.68495975648136e-05 )
         (                  0  -4.52261306532663 0.000108538872130418 )
         (                  0  -4.49748743718593 0.000121562219069021 )
         (                  0  -4.47236180904523 0.000136062286672464 )
         (                  0  -4.44723618090452 0.00015219582625101 )
         (                  0  -4.42211055276382 0.000170134955194458 )
         (                  0  -4.39698492462312 0.000190068518902053 )
         (                  0  -4.37185929648241 0.000212203557845616 )
         (                  0  -4.34673366834171 0.000236766886279464 )
         (                  0  -4.32160804020101 0.000264006789354466 )
         (                  0   -4.2964824120603 0.000294194845629759 )
         (                  0   -4.2713567839196 0.000327627882202152 )
         (                  0  -4.24623115577889 0.000364630069887285 )
         (                  0  -4.22110552763819 0.000405555166085827 )
         (                  0  -4.19597989949749 0.000450788913149095 )
         (                  0  -4.17085427135678 0.000500751600218732 )
         (                  0  -4.14572864321608 0.000555900796650765 )
         (                  0  -4.12060301507538 0.000616734265242239 )
         (                  0  -4.09547738693467 0.000683793063554683 )
         (                  0  -4.07035175879397 0.00075766484166911 )
         (                  0  -4.04522613065327 0.000838987344707691 )
         (                  0  -4.02010050251256 0.000928452128413624 )
         (                  0  -3.99497487437186 0.00102680849598799 )
         (                  0  -3.96984924623116 0.00113486766423645 )
         (                  0  -3.94472361809045 0.0012535071668738 )
         (                  0  -3.91959798994975 0.00138367550256661 )
         (                  0  -3.89447236180905 0.0015263970349573 )
         (                  0  -3.86934673366834 0.00168277715150242 )
         (                  0  -3.84422110552764 0.00185400768746845 )
         (                  0  -3.81909547738693 0.00204137262085396 )
         (                  0  -3.79396984924623 0.00224625404334322 )
         (                  0  -3.76884422110553 0.00247013841163729 )
         (                  0  -3.74371859296482 0.00271462308264939 )
         (                  0  -3.71859296482412 0.00298142313508692 )
         (                  0  -3.69346733668342 0.00327237847886773 )
         (                  0  -3.66834170854271 0.00358946125262921 )
         (                  0  -3.64321608040201 0.00393478350828001 )
         (                  0  -3.61809045226131 0.00431060518011346 )
         (                  0   -3.5929648241206 0.00471934233444314 )
         (                  0   -3.5678391959799 0.00516357569403458 )
         (                  0   -3.5427135678392 0.00564605942978687 )
         (                  0  -3.51758793969849 0.00616973021016551 )
         (                  0  -3.49246231155779 0.00673771649679899 )
         (                  0  -3.46733668341709 0.00735334807242903 )
         (                  0  -3.44221105527638 0.00802016578504507 )
         (                  0  -3.41708542713568 0.00874193148954328 )
         (                  0  -3.39195979899498 0.00952263816562694 )
         (                  0  -3.36683417085427 0.0103665201879163 )
         (                  0  -3.34170854271357 0.0112780637213631 )
         (                  0  -3.31658291457286 0.0122620172120764 )
         (                  0  -3.29145728643216 0.0133234019405686 )
         (                  0  -3.26633165829146 0.0144675226012312 )
         (                  0  -3.24120603015075 0.0156999778685605 )
         (                  0  -3.21608040201005 0.0170266709072855 )
         (                  0  -3.19095477386935 0.0184538197801143 )
         (                  0  -3.16582914572864  0.019987967703332 )
         (                  0  -3.14070351758794 0.0216359930969582 )
         (                  0  -3.11557788944724 0.0234051193726379 )
         (                  0  -3.09045226130653 0.0253029243988999 )
         (                  0  -3.06532663316583 0.0273373495799066 )
         (                  0  -3.04020100502513 0.0295167084803493 )
         (                  0  -3.01507537688442 0.0318496949257489 )
         (                  0  -2.98994974874372 0.0343453905041175 )
         (                  0  -2.96482412060302 0.0370132713917622 )
         (                  0  -2.93969849246231 0.0398632144229831 )
         (                  0  -2.91457286432161 0.0429055023205747 )
         (                  0   -2.8894472361809 0.0461508280014064 )
         (                  0   -2.8643216080402 0.0496102978689729 )
         (                  0   -2.8391959798995 0.0532954340026933 )
         (                  0  -2.81407035175879 0.0572181751519425 )
         (                  0  -2.78894472361809 0.0613908764413432 )
         (                  0  -2.76381909547739 0.0658263076927785 )
         (                  0  -2.73869346733668 0.0705376502689245 )
         (                  0  -2.71356783919598 0.0755384923428975 )
         (                  0  -2.68844221105528 0.0808428224988862 )
         (                  0  -2.66331658291457 0.0864650215694305 )
         (                  0  -2.63819095477387 0.0924198526163536 )
         (                  0  -2.61306532663317 0.0987224489642781 )
         (                  0  -2.58793969849246  0.105388300198187 )
         (                  0  -2.56281407035176  0.112433236039671 )
         (                  0  -2.53768844221106  0.119873408020327 )
         (                  0  -2.51256281407035  0.127725268875307 )
         (                  0  -2.48743718592965  0.136005549585254 )
         (                  0  -2.46231155778894  0.144731234000772 )
         (                  0  -2.43718592964824  0.153919530990339 )
         (                  0  -2.41206030150754  0.163587844059936 )
         (                  0  -2.38693467336683  0.173753738400898 )
         (                  0  -2.36180904522613  0.184434905331417 )
         (                  0  -2.33668341708543  0.195649124106808 )
         (                  0  -2.31155778894472  0.207414221084089 )
         (                  0  -2.28643216080402  0.219748026237546 )
         (                  0  -2.26130653266332   0.23266832703383 )
         (                  0  -2.23618090452261  0.246192819687643 )
         (                  0  -2.21105527638191  0.260339057832232 )
         (                  0  -2.18592964824121  0.275124398652698 )
         (                  0   -2.1608040201005  0.290565946544444 )
         (                  0   -2.1356783919598  0.306680494373943 )
         (                  0   -2.1105527638191  0.323484462434279 )
         (                  0  -2.08542713567839  0.340993835203626 )
         (                  0  -2.06030150753769  0.359224096030802 )
         (                  0  -2.03517587939699  0.378190159888291 )
         (                  0  -2.01005025125628  0.397906304349548 )
         (                  0  -1.98492462311558  0.418386098963847 )
         (                  0  -1.95979899497487  0.439642333218441 )
         (                  0  -1.93467336683417  0.461686943294112 )
         (                  0  -1.90954773869347  0.484530937836364 )
         (                  0  -1.88442211055276  0.508184322980299 )
         (                  0  -1.85929648241206  0.532656026882616 )
         (                  0  -1.83417085427136  0.557953824029037 )
         (                  0  -1.80904522613065  0.584084259599625 )
         (                  0  -1.78391959798995  0.611052574187933 )
         (                  0  -1.75879396984925  0.638862629182424 )
         (                  0  -1.73366834170854  0.667516833130204 )
         (                  0  -1.70854271356784  0.697016069413489 )
         (                  0  -1.68341708542714  0.727359625578497 )
         (                  0  -1.65829145728643  0.758545124664295 )
         (                  0  -1.63316582914573  0.790568458885608 )
         (                  0  -1.60804020100503  0.823423726028457 )
         (                  0  -1.58291457286432  0.857103168920797 )
         (                  0  -1.55778894472362  0.891597118341841 )
         (                  0  -1.53266331658291  0.926893939733489 )
         (                  0  -1.50753768844221  0.962979984075131 )
         (                  0  -1.48241206030151  0.999839543278987 )
         (                  0   -1.4572864321608   1.03745481045703 )
         (                  0   -1.4321608040201   1.07580584540246 )
         (                  0   -1.4070351758794   1.11487054561825 )
         (                  0  -1.38190954773869   1.15462462321336 )
         (                  0  -1.35678391959799   1.19504158797218 )
         (                  0  -1.33165829145729   1.23609273688686 )
         (                  0  -1.30653266331658     1.277747150423 )
         (                  0  -1.28140703517588    1.3199716957688 )
         (                  0  -1.25628140703518   1.36273103729495 )
         (                  0  -1.23115577889447   1.40598765442798 )
         (                  0  -1.20603015075377   1.44970186711306 )
         (                  0  -1.18090452261307    1.4938318690143 )
         (                  0  -1.15577889447236   1.53833376857024 )
         (                  0  -1.13065326633166   1.58316163799096 )
         (                  0  -1.10552763819095   1.62826757025023 )
         (                  0  -1.08040201005025   1.67360174409182 )
         (                  0  -1.05527638190955   1.71911249703384 )
         (                  0  -1.03015075376884   1.76474640631865 )
         (                  0  -1.00502512562814   1.81044837771884 )
         (                  0 -0.979899497487437    1.8561617420721 )
         (                  0 -0.954773869346734   1.90182835937994 )
         (                  0  -0.92964824120603    1.9473887302669 )
         (                  0 -0.904522613065327    1.9927821145588 )
         (                  0 -0.879396984924623   2.03794665670093 )
         (                  0  -0.85427135678392   2.08281951769946 )
         (                  0 -0.829145728643216   2.12733701323287 )
         (                  0 -0.804020100502513   2.17143475754458 )
         (                  0 -0.778894472361809   2.21504781269339 )
         (                  0 -0.753768844221106   2.25811084270515 )
         (                  0 -0.728643216080402   2.30055827213783 )
         (                  0 -0.703517587939699   2.34232444854235 )
         (                  0 -0.678391959798995     2.383343808274 )
         (                  0 -0.653266331658292   2.42355104508384 )
         (                  0 -0.628140703517588   2.46288128089668 )
         (                  0 -0.603015075376884   2.50127023816188 )
         (                  0 -0.577889447236181   2.53865441314549 )
         (                  0 -0.552763819095477    2.5749712495179 )
         (                  0 -0.527638190954774   2.61015931157936 )
         (                  0  -0.50251256281407   2.64415845645736 )
         (                  0 -0.477386934673367   2.67691000460483 )
         (                  0 -0.452261306532663     2.708356907926 )
         (                  0  -0.42713567839196   2.73844391485869 )
         (                  0 -0.402010050251256   2.76711773174647 )
         (                  0 -0.376884422110553   2.79432717984282 )
         (                  0 -0.351758793969849   2.82002334730113 )
         (                  0 -0.326633165829146   2.84415973551976 )
         (                  0 -0.301507537688442   2.86669239922997 )
         (                  0 -0.276381909547739   2.88758007973665 )
         (                  0 -0.251256281407035    2.9067843307465 )
         (                  0 -0.226130653266332   2.92426963624707 )
         (                  0 -0.201005025125628   2.94000351993076 )
         (                  0 -0.175879396984925   2.95395664569206 )
         (                  0 -0.150753768844221    2.9661029087628 )
         (                  0 -0.125628140703518   2.97641951708917 )
         (                  0 -0.100502512562814    2.9848870625954 )
         (                  0 -0.0753768844221106   2.99148958202237 )
         (                  0 -0.050251256281407     2.996214607074 )
         (                  0 -0.0251256281407035   2.99905320365113 )
         (                  0                 -0                  3 )
)
    spline 3 8                      // spline-e (v-e-z0 v-c-z0)
    (
         (                  5                  0 1.1179959516236e-05 )
         (    4.9748743718593                  0 1.26725132728895e-05 )
         (   4.94974874371859                  0 1.43552615517383e-05 )
         (   4.92462311557789                  0 1.62511947864086e-05 )
         (   4.89949748743719                  0 1.83859177502139e-05 )
         (   4.87437185929648                  0 2.0787925956092e-05 )
         (   4.84924623115578                  0 2.34889087450699e-05 )
         (   4.82412060301508                  0 2.65240813468057e-05 )
         (   4.79899497487437                  0 2.99325483586504e-05 )
         (   4.77386934673367                  0 3.37577012607103e-05 )
         (   4.74874371859296                  0 3.80476527635873e-05 )
         (   4.72361809045226                  0 4.28557109728162e-05 )
         (   4.69849246231156                  0 4.82408965494157e-05 )
         (   4.67336683417085                  0 5.42685062492827e-05 )
         (   4.64824120603015                  0 6.1010726435161e-05 )
         (   4.62311557788945                  0 6.85473003733263e-05 )
         (   4.59798994974874                  0 7.69662533525291e-05 )
         (   4.57286432160804                  0 8.63646798947021e-05 )
         (   4.54773869346734                  0 9.68495975648136e-05 )
         (   4.52261306532663                  0 0.000108538872130418 )
         (   4.49748743718593                  0 0.000121562219069021 )
         (   4.47236180904523                  0 0.000136062286672464 )
         (   4.44723618090452                  0 0.00015219582625101 )
         (   4.42211055276382                  0 0.000170134955194458 )
         (   4.39698492462312                  0 0.000190068518902053 )
         (   4.37185929648241                  0 0.000212203557845616 )
         (   4.34673366834171                  0 0.000236766886279464 )
         (   4.32160804020101                  0 0.000264006789354466 )
         (    4.2964824120603                  0 0.000294194845629759 )
         (    4.2713567839196                  0 0.000327627882202152 )
         (   4.24623115577889                  0 0.000364630069887285 )
         (   4.22110552763819                  0 0.000405555166085827 )
         (   4.19597989949749                  0 0.000450788913149095 )
         (   4.17085427135678                  0 0.000500751600218732 )
         (   4.14572864321608                  0 0.000555900796650765 )
         (   4.12060301507538                  0 0.000616734265242239 )
         (   4.09547738693467                  0 0.000683793063554683 )
         (   4.07035175879397                  0 0.00075766484166911 )
         (   4.04522613065327                  0 0.000838987344707691 )
         (   4.02010050251256                  0 0.000928452128413624 )
         (   3.99497487437186                  0 0.00102680849598799 )
         (   3.96984924623116                  0 0.00113486766423645 )
         (   3.94472361809045                  0 0.0012535071668738 )
         (   3.91959798994975                  0 0.00138367550256661 )
         (   3.89447236180905                  0 0.0015263970349573 )
         (   3.86934673366834                  0 0.00168277715150242 )
         (   3.84422110552764                  0 0.00185400768746845 )
         (   3.81909547738693                  0 0.00204137262085396 )
         (   3.79396984924623                  0 0.00224625404334322 )
         (   3.76884422110553                  0 0.00247013841163729 )
         (   3.74371859296482                  0 0.00271462308264939 )
         (   3.71859296482412                  0 0.00298142313508692 )
         (   3.69346733668342                  0 0.00327237847886773 )
         (   3.66834170854271                  0 0.00358946125262921 )
         (   3.64321608040201                  0 0.00393478350828001 )
         (   3.61809045226131                  0 0.00431060518011346 )
         (    3.5929648241206                  0 0.00471934233444314 )
         (    3.5678391959799                  0 0.00516357569403458 )
         (    3.5427135678392                  0 0.00564605942978687 )
         (   3.51758793969849                  0 0.00616973021016551 )
         (   3.49246231155779                  0 0.00673771649679899 )
         (   3.46733668341709                  0 0.00735334807242903 )
         (   3.44221105527638                  0 0.00802016578504507 )
         (   3.41708542713568                  0 0.00874193148954328 )
         (   3.39195979899498                  0 0.00952263816562694 )
         (   3.36683417085427                  0 0.0103665201879163 )
         (   3.34170854271357                  0 0.0112780637213631 )
         (   3.31658291457286                  0 0.0122620172120764 )
         (   3.29145728643216                  0 0.0133234019405686 )
         (   3.26633165829146                  0 0.0144675226012312 )
         (   3.24120603015075                  0 0.0156999778685605 )
         (   3.21608040201005                  0 0.0170266709072855 )
         (   3.19095477386935                  0 0.0184538197801143 )
         (   3.16582914572864                  0  0.019987967703332 )
         (   3.14070351758794                  0 0.0216359930969582 )
         (   3.11557788944724                  0 0.0234051193726379 )
         (   3.09045226130653                  0 0.0253029243988999 )
         (   3.06532663316583                  0 0.0273373495799066 )
         (   3.04020100502513                  0 0.0295167084803493 )
         (   3.01507537688442                  0 0.0318496949257489 )
         (   2.98994974874372                  0 0.0343453905041175 )
         (   2.96482412060302                  0 0.0370132713917622 )
         (   2.93969849246231                  0 0.0398632144229831 )
         (   2.91457286432161                  0 0.0429055023205747 )
         (    2.8894472361809                  0 0.0461508280014064 )
         (    2.8643216080402                  0 0.0496102978689729 )
         (    2.8391959798995                  0 0.0532954340026933 )
         (   2.81407035175879                  0 0.0572181751519425 )
         (   2.78894472361809                  0 0.0613908764413432 )
         (   2.76381909547739                  0 0.0658263076927785 )
         (   2.73869346733668                  0 0.0705376502689245 )
         (   2.71356783919598                  0 0.0755384923428975 )
         (   2.68844221105528                  0 0.0808428224988862 )
         (   2.66331658291457                  0 0.0864650215694305 )
         (   2.63819095477387                  0 0.0924198526163536 )
         (   2.61306532663317                  0 0.0987224489642781 )
         (   2.58793969849246                  0  0.105388300198187 )
         (   2.56281407035176                  0  0.112433236039671 )
         (   2.53768844221106                  0  0.119873408020327 )
         (   2.51256281407035                  0  0.127725268875307 )
         (   2.48743718592965                  0  0.136005549585254 )
         (   2.46231155778894                  0  0.144731234000772 )
         (   2.43718592964824                  0  0.153919530990339 )
         (   2.41206030150754                  0  0.163587844059936 )
         (   2.38693467336683                  0  0.173753738400898 )
         (   2.36180904522613                  0  0.184434905331417 )
         (   2.33668341708543                  0  0.195649124106808 )
         (   2.31155778894472                  0  0.207414221084089 )
         (   2.28643216080402                  0  0.219748026237546 )
         (   2.26130653266332                  0   0.23266832703383 )
         (   2.23618090452261                  0  0.246192819687643 )
         (   2.21105527638191                  0  0.260339057832232 )
         (   2.18592964824121                  0  0.275124398652698 )
         (    2.1608040201005                  0  0.290565946544444 )
         (    2.1356783919598                  0  0.306680494373943 )
         (    2.1105527638191                  0  0.323484462434279 )
         (   2.08542713567839                  0  0.340993835203626 )
         (   2.06030150753769                  0  0.359224096030802 )
         (   2.03517587939699                  0  0.378190159888291 )
         (   2.01005025125628                  0  0.397906304349548 )
         (   1.98492462311558                  0  0.418386098963847 )
         (   1.95979899497487                  0  0.439642333218441 )
         (   1.93467336683417                  0  0.461686943294112 )
         (   1.90954773869347                  0  0.484530937836364 )
         (   1.88442211055276                  0  0.508184322980299 )
         (   1.85929648241206                  0  0.532656026882616 )
         (   1.83417085427136                  0  0.557953824029037 )
         (   1.80904522613065                  0  0.584084259599625 )
         (   1.78391959798995                  0  0.611052574187933 )
         (   1.75879396984925                  0  0.638862629182424 )
         (   1.73366834170854                  0  0.667516833130204 )
         (   1.70854271356784                  0  0.697016069413489 )
         (   1.68341708542714                  0  0.727359625578497 )
         (   1.65829145728643                  0  0.758545124664295 )
         (   1.63316582914573                  0  0.790568458885608 )
         (   1.60804020100503                  0  0.823423726028457 )
         (   1.58291457286432                  0  0.857103168920797 )
         (   1.55778894472362                  0  0.891597118341841 )
         (   1.53266331658291                  0  0.926893939733489 )
         (   1.50753768844221                  0  0.962979984075131 )
         (   1.48241206030151                  0  0.999839543278987 )
         (    1.4572864321608                  0   1.03745481045703 )
         (    1.4321608040201                  0   1.07580584540246 )
         (    1.4070351758794                  0   1.11487054561825 )
         (   1.38190954773869                  0   1.15462462321336 )
         (   1.35678391959799                  0   1.19504158797218 )
         (   1.33165829145729                  0   1.23609273688686 )
         (   1.30653266331658                  0     1.277747150423 )
         (   1.28140703517588                  0    1.3199716957688 )
         (   1.25628140703518                  0   1.36273103729495 )
         (   1.23115577889447                  0   1.40598765442798 )
         (   1.20603015075377                  0   1.44970186711306 )
         (   1.18090452261307                  0    1.4938318690143 )
         (   1.15577889447236                  0   1.53833376857024 )
         (   1.13065326633166                  0   1.58316163799096 )
         (   1.10552763819095                  0   1.62826757025023 )
         (   1.08040201005025                  0   1.67360174409182 )
         (   1.05527638190955                  0   1.71911249703384 )
         (   1.03015075376884                  0   1.76474640631865 )
         (   1.00502512562814                  0   1.81044837771884 )
         (  0.979899497487437                  0    1.8561617420721 )
         (  0.954773869346734                  0   1.90182835937994 )
         (   0.92964824120603                  0    1.9473887302669 )
         (  0.904522613065327                  0    1.9927821145588 )
         (  0.879396984924623                  0   2.03794665670093 )
         (   0.85427135678392                  0   2.08281951769946 )
         (  0.829145728643216                  0   2.12733701323287 )
         (  0.804020100502513                  0   2.17143475754458 )
         (  0.778894472361809                  0   2.21504781269339 )
         (  0.753768844221106                  0   2.25811084270515 )
         (  0.728643216080402                  0   2.30055827213783 )
         (  0.703517587939699                  0   2.34232444854235 )
         (  0.678391959798995                  0     2.383343808274 )
         (  0.653266331658292                  0   2.42355104508384 )
         (  0.628140703517588                  0   2.46288128089668 )
         (  0.603015075376884                  0   2.50127023816188 )
         (  0.577889447236181                  0   2.53865441314549 )
         (  0.552763819095477                  0    2.5749712495179 )
         (  0.527638190954774                  0   2.61015931157936 )
         (   0.50251256281407                  0   2.64415845645736 )
         (  0.477386934673367                  0   2.67691000460483 )
         (  0.452261306532663                  0     2.708356907926 )