/*--------------------------------*- C++ -*----------------------------------*\
| =========                 |                                                 |
| \\      /  F ield         | OpenFOAM: The Open Source CFD Toolbox           |
|  \\    /   O peration     | Version:  v2206                                 |
|   \\  /    A nd           | Website:  www.openfoam.com                      |
|    \\/     M anipulation  |                                                 |
\*---------------------------------------------------------------------------*/
FoamFile
{
    version     2.0;
    format      ascii;
    class       dictionary;
    object      blockMeshDict;
}
// * * * * * * * * * * * * * * * * * * * * * * * * * * * * * * * * * * * * * //

scale   1;

vertices
(
    (  0  0  0 )  // 0 v-bot-inlet-z0
    (  0.6  0  0 )  // 1 v-bot-hill_start-z0
    (  2.6  0  0 )  // 2 v-bot-hill_end-z0
    (  6  0  0 )  // 3 v-bot-outlet-z0
    (  0  1  0 )  // 4 v-top-inlet-z0
    (  0.6  1  0 )  // 5 v-top-hill_start-z0
    (  2.6  1  0 )  // 6 v-top-hill_end-z0
    (  6  1  0 )  // 7 v-top-outlet-z0
    (  0  2  0 )  // 8 v-sponge-inlet-z0
    (  6  2  0 )  // 9 v-sponge-outlet-z0
    (  0  0  0.01 )  // 10 v-bot-inlet-z
    (  0.6  0  0.01 )  // 11 v-bot-hill_start-z
    (  2.6  0  0.01 )  // 12 v-bot-hill_end-z
    (  6  0  0.01 )  // 13 v-bot-outlet-z
    (  0  1  0.01 )  // 14 v-top-inlet-z
    (  0.6  1  0.01 )  // 15 v-top-hill_start-z
    (  2.6  1  0.01 )  // 16 v-top-hill_end-z
    (  6  1  0.01 )  // 17 v-top-outlet-z
    (  0  2  0.01 )  // 18 v-sponge-inlet-z
    (  6  2  0.01 )  // 19 v-sponge-outlet-z
);

blocks
(
    hex (0 1 5 4 10 11 15 14) b-up_stream (6 30 1) simpleGrading (1 ( ( 0.1 0.25 41.9 ) ( 0.9 0.75 1 ) ) 1)  // b-up_stream (v-bot-inlet-z0 v-bot-hill_start-z0 v-top-hill_start-z0 v-top-inlet-z0 v-bot-inlet-z v-bot-hill_start-z v-top-hill_start-z v-top-inlet-z)
    hex (1 2 6 5 11 12 16 15) b-hill (20 30 1) simpleGrading (1 ( ( 0.1 0.25 41.9 ) ( 0.9 0.75 1 ) ) 1)  // b-hill (v-bot-hill_start-z0 v-bot-hill_end-z0 v-top-hill_end-z0 v-top-hill_start-z0 v-bot-hill_start-z v-bot-hill_end-z v-top-hill_end-z v-top-hill_start-z)
    hex (2 3 7 6 12 13 17 16) b-down_stream (34 30 1) simpleGrading (1 ( ( 0.1 0.25 41.9 ) ( 0.9 0.75 1 ) ) 1)  // b-down_stream (v-bot-hill_end-z0 v-bot-outlet-z0 v-top-outlet-z0 v-top-hill_end-z0 v-bot-hill_end-z v-bot-outlet-z v-top-outlet-z v-top-hill_end-z)
    hex (4 7 9 8 14 17 19 18) porosity (60 15 1) simpleGrading (1 1 1)  // porosity (v-top-inlet-z0 v-top-outlet-z0 v-sponge-outlet-z0 v-sponge-inlet-z0 v-top-inlet-z v-top-outlet-z v-sponge-outlet-z v-sponge-inlet-z)
);

edges
(
    spline 1 2                      // spline-z0 (v-bot-hill_start-z0 v-bot-hill_end-z0)
    (
         (                0.6 3.85749969592784e-23                  0 )
         (  0.640816326530612 2.10261764881446e-21                  0 )
         (  0.681632653061224 9.70202620955685e-20                  0 )
         (  0.722448979591837 3.78976529785058e-18                  0 )
         (  0.763265306122449 1.25316979631002e-16                  0 )
         (  0.804081632653061 3.50796503929121e-15                  0 )
         (  0.844897959183673 8.31281905027587e-14                  0 )
         (  0.885714285714286 1.66758941884024e-12                  0 )
         (  0.926530612244898 2.83189839676341e-11                  0 )
         (   0.96734693877551 4.07112031672098e-10                  0 )
         (   1.00816326530612 4.95447841497473e-09                  0 )
         (   1.04897959183673 5.10422343175127e-08                  0 )
         (   1.08979591836735 4.4515283773421e-07                  0 )
         (   1.13061224489796 3.2865205236716e-06                  0 )
         (   1.17142857142857 2.05405129239311e-05                  0 )
         (   1.21224489795918 0.000108676077052956                  0 )
         (    1.2530612244898 0.000486748200805876                  0 )
         (   1.29387755102041 0.00184553586689725                  0 )
         (   1.33469387755102 0.0059236359203524                  0 )
         (   1.37551020408163 0.0160954068581537                  0 )
         (   1.41632653061225 0.0370222912963067                  0 )
         (   1.45714285714286 0.0720895577195642                  0 )
         (   1.49795918367347  0.118830838516975                  0 )
         (   1.53877551020408  0.165818772326566                  0 )
         (   1.57959183673469  0.195878135881739                  0 )
         (   1.62040816326531  0.195878135881739                  0 )
         (   1.66122448979592  0.165818772326566                  0 )
         (   1.70204081632653  0.118830838516974                  0 )
         (   1.74285714285714 0.0720895577195642                  0 )
         (   1.78367346938776 0.0370222912963067                  0 )
         (   1.82448979591837 0.0160954068581536                  0 )
         (   1.86530612244898 0.00592363592035239                  0 )
         (   1.90612244897959 0.00184553586689725                  0 )
         (    1.9469387755102 0.000486748200805876                  0 )
         (   1.98775510204082 0.000108676077052956                  0 )
         (   2.02857142857143 2.0540512923931e-05                  0 )
         (   2.06938775510204 3.2865205236716e-06                  0 )
         (   2.11020408163265 4.4515283773421e-07                  0 )
         (   2.15102040816327 5.10422343175123e-08                  0 )
         (   2.19183673469388 4.9544784149747e-09                  0 )
         (   2.23265306122449 4.07112031672098e-10                  0 )
         (    2.2734693877551 2.83189839676341e-11                  0 )
         (   2.31428571428571 1.66758941884024e-12                  0 )
         (   2.35510204081633 8.31281905027592e-14                  0 )
         (   2.39591836734694 3.50796503929116e-15                  0 )
         (   2.43673469387755  1.25316979631e-16                  0 )
         (   2.47755102040816 3.78976529785053e-18                  0 )
         (   2.51836734693878 9.70202620955685e-20                  0 )
         (   2.55918367346939 2.10261764881446e-21                  0 )
         (                2.6 3.85749969592784e-23                  0 )
)
    spline 11 12                      // spline-z (v-bot-hill_start-z v-bot-hill_end-z)
    (
         (                0.6 3.85749969592784e-23               0.01 )
         (  0.640816326530612 2.10261764881446e-21               0.01 )
         (  0.681632653061224 9.70202620955685e-20               0.01 )
         (  0.722448979591837 3.78976529785058e-18               0.01 )
         (  0.763265306122449 1.25316979631002e-16               0.01 )
         (  0.804081632653061 3.50796503929121e-15               0.01 )
         (  0.844897959183673 8.31281905027587e-14               0.01 )
         (  0.885714285714286 1.66758941884024e-12               0.01 )
         (  0.926530612244898 2.83189839676341e-11               0.01 )
         (   0.96734693877551 4.07112031672098e-10               0.01 )
         (   1.00816326530612 4.95447841497473e-09               0.01 )
         (   1.04897959183673 5.10422343175127e-08               0.01 )
         (   1.08979591836735 4.4515283773421e-07               0.01 )
         (   1.13061224489796 3.2865205236716e-06               0.01 )
         (   1.17142857142857 2.05405129239311e-05               0.01 )
         (   1.21224489795918 0.000108676077052956               0.01 )
         (    1.2530612244898 0.000486748200805876               0.01 )
         (   1.29387755102041 0.00184553586689725               0.01 )
         (   1.33469387755102 0.0059236359203524               0.01 )
         (   1.37551020408163 0.0160954068581537               0.01 )
         (   1.41632653061225 0.0370222912963067               0.01 )
         (   1.45714285714286 0.0720895577195642               0.01 )
         (   1.49795918367347  0.118830838516975               0.01 )
         (   1.53877551020408  0.165818772326566               0.01 )
         (   1.57959183673469  0.195878135881739               0.01 )
         (   1.62040816326531  0.195878135881739               0.01 )
         (   1.66122448979592  0.165818772326566               0.01 )
         (   1.70204081632653  0.118830838516974               0.01 )
         (   1.74285714285714 0.0720895577195642               0.01 )
         (   1.78367346938776 0.0370222912963067               0.01 )
         (   1.82448979591837 0.0160954068581536               0.01 )
         (   1.86530612244898 0.00592363592035239               0.01 )
         (   1.90612244897959 0.00184553586689725               0.01 )
         (    1.9469387755102 0.000486748200805876               0.01 )
         (   1.98775510204082 0.000108676077052956               0.01 )
         (   2.02857142857143 2.0540512923931e-05               0.01 )
         (   2.06938775510204 3.2865205236716e-06               0.01 )
         (   2.11020408163265 4.4515283773421e-07               0.01 )
         (   2.15102040816327 5.10422343175123e-08               0.01 )
         (   2.19183673469388 4.9544784149747e-09               0.01 )
         (   2.23265306122449 4.07112031672098e-10               0.01 )
         (    2.2734693877551 2.83189839676341e-11               0.01 )
         (   2.31428571428571 1.66758941884024e-12               0.01 )
         (   2.35510204081633 8.31281905027592e-14               0.01 )
         (   2.39591836734694 3.50796503929116e-15               0.01 )
         (   2.43673469387755  1.25316979631e-16               0.01 )
         (   2.47755102040816 3.78976529785053e-18               0.01 )
         (   2.51836734693878 9.70202620955685e-20               0.01 )
         (   2.55918367346939 2.10261764881446e-21               0.01 )
         (                2.6 3.85749969592784e-23               0.01 )
)
);

boundary
(
    top
    {
        type wall;
        faces
        (
            (9 8 18 19)  // f-porosity-n (v-sponge-outlet-z0 v-sponge-inlet-z0 v-sponge-inlet-z v-sponge-outlet-z)
        );
    }
    bottom
    {
        type wall;
        faces
        (
            (0 1 11 10)  // f-b-up_stream-s (v-bot-inlet-z0 v-bot-hill_start-z0 v-bot-hill_start-z v-bot-inlet-z)
            (1 2 12 11)  // f-b-hill-s (v-bot-hill_start-z0 v-bot-hill_end-z0 v-bot-hill_end-z v-bot-hill_start-z)
            (2 3 13 12)  // f-b-down_stream-s (v-bot-hill_end-z0 v-bot-outlet-z0 v-bot-outlet-z v-bot-hill_end-z)
        );
    }
    outlet
    {
        type cyclic;
        neighbourPatch  inlet;
        faces
        (
            (3 7 17 13)  // f-b-down_stream-e (v-bot-outlet-z0 v-top-outlet-z0 v-top-outlet-z v-bot-outlet-z)
            (7 9 19 17)  // f-porosity-e (v-top-outlet-z0 v-sponge-outlet-z0 v-sponge-outlet-z v-top-outlet-z)
        );
    }
    inlet
    {
        type cyclic;
        neighbourPatch  outlet;
        faces
        (
            (0 10 14 4)  // f-b-up_stream-w (v-bot-inlet-z0 v-bot-inlet-z v-top-inlet-z v-top-inlet-z0)
            (4 14 18 8)  // f-porosity-w (v-top-inlet-z0 v-top-inlet-z v-sponge-inlet-z v-sponge-inlet-z0)
        );
    }
    frontandbackplanes
    {
        type empty;
        faces
        (
            (0 4 5 1)  // f-b-up_stream-b (v-bot-inlet-z0 v-top-inlet-z0 v-top-hill_start-z0 v-bot-hill_start-z0)
            (1 5 6 2)  // f-b-hill-b (v-bot-hill_start-z0 v-top-hill_start-z0 v-top-hill_end-z0 v-bot-hill_end-z0)
            (2 6 7 3)  // f-b-down_stream-b (v-bot-hill_end-z0 v-top-hill_end-z0 v-top-outlet-z0 v-bot-outlet-z0)
            (4 8 9 7)  // f-porosity-b (v-top-inlet-z0 v-sponge-inlet-z0 v-sponge-outlet-z0 v-top-outlet-z0)
            (10 11 15 14)  // f-b-up_stream-t (v-bot-inlet-z v-bot-hill_start-z v-top-hill_start-z v-top-inlet-z)
            (11 12 16 15)  // f-b-hill-t (v-bot-hill_start-z v-bot-hill_end-z v-top-hill_end-z v-top-hill_start-z)
            (12 13 17 16)  // f-b-down_stream-t (v-bot-hill_end-z v-bot-outlet-z v-top-outlet-z v-top-hill_end-z)
            (14 17 19 18)  // f-porosity-t (v-top-inlet-z v-top-outlet-z v-sponge-outlet-z v-sponge-inlet-z)
        );
    }
    interface_top
    {
        type patch;
        faces
        (
            (5 4 14 15)  // f-b-up_stream-n (v-top-hill_start-z0 v-top-inlet-z0 v-top-inlet-z v-top-hill_start-z)
            (6 5 15 16)  // f-b-hill-n (v-top-hill_end-z0 v-top-hill_start-z0 v-top-hill_start-z v-top-hill_end-z)
            (7 6 16 17)  // f-b-down_stream-n (v-top-outlet-z0 v-top-hill_end-z0 v-top-hill_end-z v-top-outlet-z)
        );
    }
    interface_sponge
    {
        type patch;
        faces
        (
            (4 7 17 14)  // f-porosity-s (v-top-inlet-z0 v-top-outlet-z0 v-top-outlet-z v-top-inlet-z)
        );
    }
);

mergePatchPairs
(
    (interface_sponge interface_top)  // (merge patch pairs: interface_sponge and interface_top)
);

// ************************************************************************* //
