FoamFile
{
    version     2.0;
    format      ascii;
    class       volScalarField;
    object      Theta;
}

dimensions       [0 2 -2 0 0 0 0];

internalField    uniform 0.0;

boundaryField
{
    inlet
    {
        type    cyclic;
    }
    outlet
    {
        type    cyclic;
    }
    top
    {
        type    zeroGradient;
    }
    bottom
    {
        type    zeroGradient;
    }
    frontAndBackPlanes
    {
        type    empty;
    }
}
